*HEADING
ABAQUS-style file created by OOF2 on 2020-04-03 16:46:23.858974 from a mesh of the microstructure microstructure.
 ** Materials defined by OOF2:
**   material-118:
**   material-119:
**   material-116:
**   material-117:
**   material-114:
**   material-115:
**   material-112:
**   material-113:
**   material-110:
**   material-111:
**   material-107:
**   material-65:
**   material-64:
**   material-67:
**   material-66:
**   material-61:
**   material-60:
**   material-63:
**   material-62:
**   material-69:
** ... 227 like lines cut
** Master elements used in OOF2:
**   2: D2_2, Isoparametric 2-noded edge element
**   3: T3_3, Isoparametric 3 noded triangle with linear interpolation for both fields and positions.
**   4: Q4_4, Isoparametric 4 noded quadrilateral with bilinear interpolation for both positions and fields
** Boundary Conditions:
** Notes:
**   The set of nodes and elements may be different from the set
**    created from a skeleton depending on the element type and if the
**    mesh was refined.
** The materials and boundary conditions provided by OOF2 may be
**   translated into ABAQUS by the user.
** The element type provided below should be verified and modified
**   accordingly.
** Only elements (and nodes of such elements) that have an associated
**   material are included in this file.
*NODE
688, 15.106035491675128, 7.398450952047377
1837, 16.12376536957699, 20.805498645042302
2110, 5.8938796283587145, 20.588943679086295
890, 17.58807738077834, 9.708227446294417
631, 6.506179180879864, 6.6757616108291025
234, 19.376114837021998, 2.164370263895093
1359, 2.758508356605753, 15.199137004737732
461, 19.087894572927244, 4.8718337051099825
52, 0.85809749842978, 0.8372693658781726
2180, 4.441095792047377, 3.7111413343485617
1577, 12.522780808358714, 17.73177284771574
836, 17.59471341062606, 9.000352395160744
112, 10.77949889143824, 1.228911134964467
852, 0.20186123177800339, 9.540762620541456
1291, 2.8121671373434856, 14.449534809204737
925, 16.83495509225042, 9.654445022774958
299, 2.1517175993333333, 3.316292281539763
1415, 6.372162249035533, 16.16803574575296
1133, 5.648007214822335, 12.170207474010152
386, 5.965944864500846, 4.369244138341793
** ... 2840 like lines cut
** The OOF2 element type is T3_3. The type provided for ABAQUS is only a guess
** and may have to be modified by the user to be meaningful.
*ELEMENT, TYPE=CPS3
1, 1, 2, 3
2, 2, 1, 4
3, 5, 6, 7
4, 6, 5, 8
5, 9, 10, 11
6, 10, 9, 12
7, 9, 13, 12
8, 13, 9, 14
9, 15, 16, 17
10, 18, 19, 20
11, 21, 18, 22
12, 23, 24, 25
13, 24, 23, 26
14, 27, 28, 29
15, 28, 27, 30
16, 31, 32, 33
17, 32, 31, 34
18, 35, 36, 37
19, 37, 36, 38
20, 39, 37, 38
** ... 5500 like lines cut
** Point boundaries in OOF2
*NSET, NSET=topleft
1886
*NSET, NSET=bottomleft
3
*NSET, NSET=topright
2096
*NSET, NSET=bottomright
50
** Edge boundaries in OOF2
*NSET, NSET=top
2096, 1931, 1932, 1929, 1930, 2042, 1927, 1926, 1924, 1922, 1923, 2024, 1919, 1915, 1914, 1913, 
2844, 1949, 1911, 1912, 1909, 1907, 1904, 1905, 2785, 1903, 1900, 1901, 1902, 2138, 2160, 2547, 
2855, 2856, 2375, 2374, 2372, 2597, 1898, 1897, 1895, 1893, 1894, 1891, 1889, 2592, 2085, 1887, 
1888, 1885, 1886
*NSET, NSET=right
50, 48, 97, 96, 134, 235, 233, 2116, 330, 332, 413, 415, 492, 494, 2035, 608, 
606, 694, 693, 736, 767, 849, 850, 848, 934, 932, 2294, 1051, 1052, 1093, 1182, 1180, 
1220, 1328, 1326, 1388, 1386, 1444, 1443, 1482, 1557, 1592, 1655, 1653, 1728, 1726, 1794, 1793, 
1844, 2095, 2096
*NSET, NSET=left
1886, 1884, 1796, 1751, 1752, 2857, 1629, 1596, 1594, 1514, 1483, 1484, 1390, 1351, 1352, 1285, 
1283, 2757, 1185, 1183, 1995, 1054, 1055, 967, 936, 898, 853, 851, 769, 772, 738, 739, 
2796, 609, 562, 535, 533, 465, 463, 366, 364, 1958, 2206, 2732, 190, 191, 98, 99, 
2, 3
*NSET, NSET=bottom
3, 1, 7, 5, 11, 9, 14, 16, 17, 2348, 20, 18, 22, 2097, 2851, 1937, 
1938, 2012, 2013, 2791, 25, 23, 2155, 27, 30, 2806, 2807, 2499, 2854, 2460, 2385, 2251, 
1964, 1963, 2671, 2834, 2835, 2204, 31, 34, 2812, 38, 39, 2831, 42, 43, 44, 46, 
47, 50
*ELSET, ELSET=material-118
430, 458, 1833, 1980, 2339, 3400, 3402, 3555, 3556, 4534, 4536, 4737
*SOLID SECTION, ELSET=material-118, MATERIAL=material-118
*ELSET, ELSET=material-119
33, 34, 1396, 1397, 1504, 1552, 1553, 1567, 3319, 3321, 3905, 4765, 4767, 4770, 4771, 4772, 
5382, 5383, 5478
*SOLID SECTION, ELSET=material-119, MATERIAL=material-119
*ELSET, ELSET=material-116
529, 549, 550, 574, 1400, 1775, 1776, 1952, 2382, 2396, 2397, 2543, 2770, 2771, 2873, 2874, 
2875, 3465, 3466, 3477, 3479, 3676, 4080, 4082, 4535, 4883, 4884, 4976, 4995, 5438, 5439
*SOLID SECTION, ELSET=material-116, MATERIAL=material-116
*ELSET, ELSET=material-117
32, 65, 66, 87, 1819, 1922, 2045, 2046, 2319, 2320, 2321, 2322, 2323, 2426, 2428, 2440, 
2441, 2568, 2569, 2714, 2799, 2800, 2917, 2919, 2920, 2942, 3252, 3732, 3781, 3788, 3953, 3954, 
4034, 4052, 4123, 4124, 4437, 4438, 4783, 4784, 4785
*SOLID SECTION, ELSET=material-117, MATERIAL=material-117
*ELSET, ELSET=material-114
325, 347, 396, 431, 432, 433, 434, 435, 436, 437, 459, 460, 461, 462, 463, 464, 
485, 486, 487, 488, 489, 551, 1677, 1678, 1719, 1876, 1879, 1880, 1891, 1896, 1897, 1911, 
1912, 1929, 1930, 2047, 2153, 2154, 2830, 3063, 3064, 3065, 3141, 3152, 3153, 3202, 3206, 3208, 
3209, 3401, 3456, 3457, 3458, 3459, 3460, 3461, 3462, 3463, 3552, 3553, 3554, 3785, 3787, 3870, 
4335, 4448, 4640, 4641, 4903, 4904, 4905, 5044, 5093, 5094, 5267, 5268, 5269, 5440
*SOLID SECTION, ELSET=material-114, MATERIAL=material-114
*ELSET, ELSET=material-115
1600, 1601, 2032, 2071, 2390, 2391, 2674, 2675, 2676, 2708, 2709, 2710, 3055, 3056, 3057, 3471, 
3548, 3550, 3551, 3568, 3569, 3999, 4456, 4457, 4882
*SOLID SECTION, ELSET=material-115, MATERIAL=material-115
*ELSET, ELSET=material-112
411, 445, 475, 476, 1591, 1680, 1813, 2180, 2181, 3257, 3577, 3578, 4247, 5003, 5004, 5005, 
5006
*SOLID SECTION, ELSET=material-112, MATERIAL=material-112
*ELSET, ELSET=material-113
446, 447, 478, 479, 480, 503, 509, 1859, 1860, 2692, 3566, 3720, 3721, 3791, 4018, 4019, 
4020, 4399, 4400, 4479, 4480, 5353, 5354
*SOLID SECTION, ELSET=material-113, MATERIAL=material-113
*ELSET, ELSET=material-110
352, 378, 379, 380, 1541, 1542, 2366, 2367, 2496, 2497, 3078, 3079, 3304, 3305, 4141, 4440, 
4441
*SOLID SECTION, ELSET=material-110, MATERIAL=material-110
*ELSET, ELSET=material-111
397, 438, 2418, 2432, 2433, 2464, 2465, 2811, 3786, 3879, 4147, 4174, 5072, 5300, 5301, 5302
*SOLID SECTION, ELSET=material-111, MATERIAL=material-111
*ELSET, ELSET=material-107
2292, 2502, 2503, 3670, 3695, 5156, 5157, 5159
*SOLID SECTION, ELSET=material-107, MATERIAL=material-107
*ELSET, ELSET=material-65
2922, 3408, 3409, 3643, 3662, 3663, 4373, 4680, 4681, 4682, 4683, 4937
*SOLID SECTION, ELSET=material-65, MATERIAL=material-65
*ELSET, ELSET=material-64
691, 2211, 2381, 2544, 3410, 3751, 3752, 3961, 4139, 4547, 4975
*SOLID SECTION, ELSET=material-64, MATERIAL=material-64
*ELSET, ELSET=material-67
324, 3240, 3490, 3491, 3869, 4264, 4458, 4754, 4755, 4756, 4758
*SOLID SECTION, ELSET=material-67, MATERIAL=material-67
*ELSET, ELSET=material-66
602, 604, 632, 633, 634, 635, 660, 661, 662, 744, 771, 772, 773, 774, 775, 832, 
833, 834, 860, 861, 906, 938, 939, 940, 949, 950, 951, 975, 976, 977, 1009, 1010, 
1011, 1012, 1033, 1034, 1035, 1036, 1097, 1098, 1120, 1121, 1122, 1123, 1124, 1125, 1148, 1149, 
1150, 1151, 1170, 1171, 1172, 1173, 1174, 1175, 1195, 1196, 1197, 1198, 1215, 1216, 1217, 1218, 
1219, 1220, 1221, 1233, 1234, 1235, 1236, 1255, 1256, 1257, 1258, 1259, 1260, 1286, 1287, 1288, 
1289, 1290, 1291, 1317, 1318, 1319, 1320, 1359, 1360, 1361, 1362, 1450, 1451, 1456, 1502, 1508, 
1509, 1525, 1526, 1563, 1564, 1572, 1584, 1585, 1621, 1622, 1631, 1638, 1639, 1668, 1669, 1702, 
1703, 1731, 1732, 1754, 1755, 1756, 1757, 1799, 1800, 1801, 1824, 1825, 1829, 1844, 1845, 1861, 
1862, 1887, 1888, 1899, 1900, 1902, 1903, 1909, 1910, 1938, 1939, 1982, 1983, 2004, 2005, 2013, 
2014, 2058, 2059, 2072, 2115, 2121, 2122, 2123, 2124, 2137, 2138, 2198, 2199, 2209, 2210, 2243, 
2267, 2268, 2275, 2276, 2285, 2337, 2405, 2671, 2743, 2744, 2773, 2801, 2802, 2815, 3010, 3011, 
3012, 3059, 3070, 3072, 3073, 3145, 3180, 3199, 3200, 3201, 3360, 3425, 3426, 3454, 3514, 3515, 
3754, 3797, 3798, 3799, 3801, 3841, 3983, 4285, 4286, 4319, 4320, 4421, 4454, 4455, 4466, 4467, 
4468, 4483, 4585, 4586, 4587, 4614, 4615, 4616, 4798, 4811, 5249, 5362, 5412, 5501
*SOLID SECTION, ELSET=material-66, MATERIAL=material-66
*ELSET, ELSET=material-61
298, 4780, 4781, 4782
*SOLID SECTION, ELSET=material-61, MATERIAL=material-61
*ELSET, ELSET=material-60
76, 148, 150, 154, 2374, 2446, 2447, 2448, 2449, 2813, 2814, 4211, 4212, 4291, 4292, 4497, 
5048, 5049, 5471
*SOLID SECTION, ELSET=material-60, MATERIAL=material-60
*ELSET, ELSET=material-63
139, 2271, 3033, 4239, 4240, 4241, 5074, 5075, 5076
*SOLID SECTION, ELSET=material-63, MATERIAL=material-63
*ELSET, ELSET=material-62
1, 2, 3, 4, 5, 6, 7, 8, 9, 27, 28, 29, 30, 61, 62, 63, 
64, 84, 85, 86, 125, 126, 127, 128, 129, 161, 162, 186, 187, 1392, 1441, 1442, 
1474, 1475, 1565, 1566, 1595, 1596, 1624, 1625, 1727, 1805, 1806, 1827, 1894, 1895, 2091, 2092, 
2191, 2192, 2782, 2783, 2784, 2918, 3197, 3198, 3273, 3274, 3275, 3681, 3683, 3689, 3690, 4121, 
4122, 4296, 5317, 5318, 5512, 5513, 5514, 5515
*SOLID SECTION, ELSET=material-62, MATERIAL=material-62
*ELSET, ELSET=material-69
35, 67, 68, 89, 1950, 2431, 3080, 3081, 3082, 3702, 3703, 4337, 4338, 4464, 5126, 5379, 
5381, 5482, 5484, 5485, 5486
*SOLID SECTION, ELSET=material-69, MATERIAL=material-69
*ELSET, ELSET=material-68
188, 1608, 1609, 1904, 2041, 2042, 2437, 2438, 2442, 2993, 3040, 3041, 3042, 3366, 3412, 3422, 
3682, 3693, 3821, 3822, 4007, 4265, 4266
*SOLID SECTION, ELSET=material-68, MATERIAL=material-68
*ELSET, ELSET=material-109
138, 173, 174, 2010, 2011, 2148, 3258, 3259, 3377, 3379, 3923, 3925, 4011, 4013
*SOLID SECTION, ELSET=material-109, MATERIAL=material-109
*ELSET, ELSET=material-108
356, 409, 410, 412, 413, 2034, 2150, 3986, 3989, 4248, 4249, 4899, 4900, 4901, 5227, 5233, 
5234, 5235, 5428, 5429, 5430
*SOLID SECTION, ELSET=material-108, MATERIAL=material-108
*ELSET, ELSET=material-85
2531, 4800, 4801, 4802
*SOLID SECTION, ELSET=material-85, MATERIAL=material-85
*ELSET, ELSET=material-84
206, 207, 1838, 1839, 2226, 2286, 3058, 3421, 4236, 4684, 4685, 5073, 5186, 5187, 5319, 5320, 
5509, 5510
*SOLID SECTION, ELSET=material-84, MATERIAL=material-84
*ELSET, ELSET=material-83
18, 20, 21, 117, 1562, 2193, 2977, 2978, 2979, 3825, 3826, 3920, 4175, 4176, 5039
*SOLID SECTION, ELSET=material-83, MATERIAL=material-83
*ELSET, ELSET=material-82
12, 13, 36, 37, 38, 3701, 3709, 3710, 4154, 4155, 4336
*SOLID SECTION, ELSET=material-82, MATERIAL=material-82
*ELSET, ELSET=material-81
185, 203, 204, 205, 225, 226, 249, 250, 251, 252, 253, 254, 288, 289, 290, 291, 
320, 321, 322, 323, 345, 346, 369, 370, 371, 392, 393, 394, 395, 429, 1382, 1383, 
1405, 1406, 1414, 1415, 1469, 1634, 1635, 1820, 1821, 1847, 1848, 1865, 1866, 1944, 1945, 1991, 
1992, 2173, 2174, 2483, 2576, 2577, 2578, 3019, 3020, 3051, 3203, 3204, 3205, 3207, 3492, 3493, 
4192, 4193, 4194, 4196, 4234, 4235, 4295, 4329, 4330, 4977, 4978, 5321, 5322
*SOLID SECTION, ELSET=material-81, MATERIAL=material-81
*ELSET, ELSET=material-80
474, 1803, 2265, 2266, 3248, 3352, 3354, 3355, 3560, 3561, 3562, 4209, 4210
*SOLID SECTION, ELSET=material-80, MATERIAL=material-80
*ELSET, ELSET=material-101
256, 257, 258, 2145, 2146, 2991, 2992, 3018, 3388, 3390, 3391, 3727, 3768, 4740, 4741, 4742, 
4743, 4757
*SOLID SECTION, ELSET=material-101, MATERIAL=material-101
*ELSET, ELSET=material-100
235, 269, 271, 272, 274, 302, 303, 304, 305, 1550, 1551, 2101, 2245, 2309, 2403, 2404, 
2948, 2949, 2953, 2982, 2984, 3179, 3593, 3649, 4837, 4838, 4891, 4929, 4930, 4931, 5427
*SOLID SECTION, ELSET=material-100, MATERIAL=material-100
*ELSET, ELSET=material-103
3214, 4130, 4731
*SOLID SECTION, ELSET=material-103, MATERIAL=material-103
*ELSET, ELSET=material-102
232, 300, 328, 329, 351, 353, 376, 1485, 1523, 1774, 1779, 1780, 2060, 2097, 2098, 2350, 
2559, 2560, 2561, 2824, 2825, 3188, 3190, 3610, 3911, 3912, 4142, 4143, 4486, 4672, 4673, 4674, 
4990, 5024, 5026, 5066, 5068, 5069, 5207, 5208
*SOLID SECTION, ELSET=material-102, MATERIAL=material-102
*ELSET, ELSET=material-105
294, 296, 326, 327, 348, 349, 350, 1547, 1548, 1560, 2093, 2117, 2182, 2183, 2184, 2434, 
2435, 2596, 2788, 2789, 2865, 2868, 3115, 3116, 3356, 3581, 3582, 3722, 3724, 3725, 3769, 4067, 
4068, 4334, 4474, 4475, 4487, 4488, 4637, 4639, 4738, 4739, 4786, 4787, 4788, 4825, 5236, 5237, 
5238, 5239
*SOLID SECTION, ELSET=material-105, MATERIAL=material-105
*ELSET, ELSET=material-104
306, 331, 332, 357, 358, 359, 1386, 1387, 1836, 2804, 2805, 2981, 2983, 3522, 3648, 4383, 
4384
*SOLID SECTION, ELSET=material-104, MATERIAL=material-104
*ELSET, ELSET=material-89
215, 270, 273, 1648, 1714, 2216, 2727, 2728, 2729, 3594, 3595, 4732, 5000, 5002, 5286, 5356, 
5358
*SOLID SECTION, ELSET=material-89, MATERIAL=material-89
*ELSET, ELSET=material-106
90, 91, 92, 93, 94, 133, 134, 135, 136, 164, 165, 167, 168, 169, 170, 171, 
172, 189, 190, 191, 209, 210, 211, 212, 228, 229, 230, 231, 259, 260, 261, 262, 
263, 264, 292, 293, 295, 297, 299, 1371, 1372, 1420, 1421, 1432, 1535, 1536, 1545, 1546, 
1578, 1579, 1763, 1953, 1954, 2253, 2254, 2466, 2469, 2470, 2471, 2473, 2538, 2600, 2601, 2602, 
3117, 3118, 3174, 3175, 3176, 3189, 3389, 3449, 3450, 3451, 3795, 3807, 3808, 3809, 3910, 4407, 
4503, 4505, 4525, 4527, 4528, 4824, 4826, 4991, 4992, 4994, 5087, 5288, 5289, 5290, 5380, 5476, 
5477
*SOLID SECTION, ELSET=material-106, MATERIAL=material-106
*ELSET, ELSET=material-88
4408, 4409, 4410, 4791
*SOLID SECTION, ELSET=material-88, MATERIAL=material-88
*ELSET, ELSET=material-78
16, 17, 19, 50, 78, 80, 1931, 1932, 1990, 2043, 2133, 2134, 2186, 2207, 2208, 3222, 
3223, 3368, 3369, 3918, 3919, 3921, 4133, 4135, 4184, 4213, 4242, 4243
*SOLID SECTION, ELSET=material-78, MATERIAL=material-78
*ELSET, ELSET=material-79
14, 15, 39, 40, 41, 42, 69, 70, 1493, 1494, 1549, 1815, 2001, 2177, 2444, 2665, 
2666, 2667, 2725, 2726, 2840, 3317, 3378, 3853, 4537, 4539, 4540, 4773, 4774, 4775, 5447, 5448, 
5449
*SOLID SECTION, ELSET=material-79, MATERIAL=material-79
*ELSET, ELSET=material-4
2572, 3650, 3651, 3652, 4590, 4592, 4936
*SOLID SECTION, ELSET=material-4, MATERIAL=material-4
*ELSET, ELSET=material-72
498, 499, 500, 562, 563, 564, 565, 1884, 2139, 2445, 2683, 2686, 2687, 2688, 2690, 2691, 
3249, 3250, 3260, 3261, 3559, 3878, 4040, 5102, 5103, 5104, 5105, 5106, 5516, 5517, 5518
*SOLID SECTION, ELSET=material-72, MATERIAL=material-72
*ELSET, ELSET=material-73
22, 23, 24, 25, 26, 51, 52, 53, 54, 55, 56, 57, 58, 59, 60, 2255, 
2256, 2763, 2764, 3142, 3143, 3839, 3840, 4177, 4207
*SOLID SECTION, ELSET=material-73, MATERIAL=material-73
*ELSET, ELSET=material-70
77, 115, 1851, 2375, 2376, 2542, 3220, 3221, 3370, 3371, 3823, 4214, 4944
*SOLID SECTION, ELSET=material-70, MATERIAL=material-70
*ELSET, ELSET=material-71
589, 621, 623, 624, 655, 1458, 1664, 1841, 2369, 2682, 2700, 2701, 2775, 2776, 3296, 3488, 
4200, 4459, 4714, 5165, 5166, 5167
*SOLID SECTION, ELSET=material-71, MATERIAL=material-71
*ELSET, ELSET=material-76
3678, 4328
*SOLID SECTION, ELSET=material-76, MATERIAL=material-76
*ELSET, ELSET=material-77
1543, 2558, 2562, 2563
*SOLID SECTION, ELSET=material-77, MATERIAL=material-77
*ELSET, ELSET=material-74
4134, 4578, 4906, 4907, 4908
*SOLID SECTION, ELSET=material-74, MATERIAL=material-74
*ELSET, ELSET=material-75
46, 71, 72, 74, 96, 97, 98, 99, 100, 101, 103, 105, 142, 2074, 2075, 2443, 
2626, 2750, 2751, 3318, 3337, 3338, 3845, 3846, 4178, 4828, 4829
*SOLID SECTION, ELSET=material-75, MATERIAL=material-75
*ELSET, ELSET=material-196
1331, 1782, 1832, 2429, 2430, 2646, 2702, 2754, 2755, 4866, 4871, 5343, 5407, 5408, 5410, 5505, 
5506
*SOLID SECTION, ELSET=material-196, MATERIAL=material-196
*ELSET, ELSET=material-197
995, 997, 2386, 2387, 2914, 3849, 4002, 4003, 4172
*SOLID SECTION, ELSET=material-197, MATERIAL=material-197
*ELSET, ELSET=material-194
1158, 1160, 2026, 2345, 2768, 2769, 3146, 3147, 3436, 3437, 3438, 4083, 4085, 5190, 5374, 5375
*SOLID SECTION, ELSET=material-194, MATERIAL=material-194
*ELSET, ELSET=material-195
776, 778, 799, 835, 836, 1481, 1482, 1511, 2037, 2038, 2298, 2299, 2300, 2661, 2662, 2663, 
2872, 3218, 3219, 3418, 3419, 3420, 3680, 3714, 3715, 4110
*SOLID SECTION, ELSET=material-195, MATERIAL=material-195
*ELSET, ELSET=material-219
967, 2491, 2492, 2493, 2494, 3084, 3085
*SOLID SECTION, ELSET=material-219, MATERIAL=material-219
*ELSET, ELSET=material-193
866, 885, 925, 2106, 2595, 2791, 3380, 3523, 3862, 3944, 3947, 3948
*SOLID SECTION, ELSET=material-193, MATERIAL=material-193
*ELSET, ELSET=material-190
4833, 4835, 4836
*SOLID SECTION, ELSET=material-190, MATERIAL=material-190
*ELSET, ELSET=material-191
2095, 2923, 3740, 4237, 4238, 4656, 4658, 4659, 4660, 4661, 5115, 5116
*SOLID SECTION, ELSET=material-191, MATERIAL=material-191
*ELSET, ELSET=material-215
1028, 1411, 3113, 3114, 3155, 3235, 4402, 4820, 5240, 5241
*SOLID SECTION, ELSET=material-215, MATERIAL=material-215
*ELSET, ELSET=material-214
1285, 1352, 1353, 1529, 1530, 1687, 1688, 2227, 3093, 3094, 3095, 4036, 4038, 4039, 4300, 4301, 
4302, 4939, 5060
*SOLID SECTION, ELSET=material-214, MATERIAL=material-214
*ELSET, ELSET=material-217
963, 964, 965, 966, 982, 983, 2223, 2234, 2235, 2597, 2598, 2599, 2915, 3006, 3213, 3607, 
4136, 4418, 4420, 4617, 4618, 4619, 4981, 4982, 4984, 4985, 5139, 5141, 5142, 5145, 5479, 5480
*SOLID SECTION, ELSET=material-217, MATERIAL=material-217
*ELSET, ELSET=material-216
948, 1907, 2640, 2641, 2642, 3324, 3325, 3530, 3531, 3616, 3926, 3951, 3952, 3978, 3979, 3980, 
3981, 4202, 4489, 4490, 4550, 4551
*SOLID SECTION, ELSET=material-216, MATERIAL=material-216
*ELSET, ELSET=material-211
783, 784, 786, 2377, 4727, 4971, 4972, 4973, 4974
*SOLID SECTION, ELSET=material-211, MATERIAL=material-211
*ELSET, ELSET=material-210
1082, 1083, 1084, 1112, 1113, 1143, 1586, 1587, 1852, 1853, 2202, 2571, 2648, 3527, 3617, 3734, 
3816, 4226, 4228, 4610, 4722, 4723, 4724, 4728, 4729, 4730, 4776, 4777, 4778, 4779
*SOLID SECTION, ELSET=material-210, MATERIAL=material-210
*ELSET, ELSET=material-198
849, 2654, 3837, 4450, 4451, 4453, 5306, 5307
*SOLID SECTION, ELSET=material-198, MATERIAL=material-198
*ELSET, ELSET=material-199
1067, 1069, 1071, 1101, 1102, 1103, 1104, 1105, 1106, 1107, 1134, 1137, 1429, 1589, 1590, 2035, 
2036, 2260, 2261, 2880, 2881, 3397, 3398, 3700, 5464, 5465
*SOLID SECTION, ELSET=material-199, MATERIAL=material-199
*ELSET, ELSET=material-94
354, 381, 383, 384, 1438, 1439, 3573, 3574, 3575, 3576, 3745, 3746, 3784, 4499, 4964, 5228, 
5229
*SOLID SECTION, ELSET=material-94, MATERIAL=material-94
*ELSET, ELSET=material-95
227, 1889, 1890, 3728, 3810
*SOLID SECTION, ELSET=material-95, MATERIAL=material-95
*ELSET, ELSET=material-96
2878, 2879, 3238, 3239, 3820, 4263, 4830, 4831, 5109, 5110, 5508, 5511
*SOLID SECTION, ELSET=material-96, MATERIAL=material-96
*ELSET, ELSET=material-97
2907, 3583, 3584, 4161, 4162, 4256, 4671
*SOLID SECTION, ELSET=material-97, MATERIAL=material-97
*ELSET, ELSET=material-90
163, 3032, 3694, 4307
*SOLID SECTION, ELSET=material-90, MATERIAL=material-90
*ELSET, ELSET=material-91
1666, 3107, 3108, 3474, 3475, 4439, 5025, 5027, 5160
*SOLID SECTION, ELSET=material-91, MATERIAL=material-91
*ELSET, ELSET=material-92
374, 375, 377, 402, 403, 1856, 2424, 2425, 3570, 3665
*SOLID SECTION, ELSET=material-92, MATERIAL=material-92
*ELSET, ELSET=material-93
214, 233, 234, 265, 266, 267, 268, 301, 330, 1614, 1615, 1742, 2109, 2110, 2317, 2318, 
2539, 2761, 2777, 2816, 2820, 2821, 2822, 2847, 3109, 3215, 3233, 3234, 3916, 3917, 4131, 4257, 
4429, 4687, 4932, 5028, 5029, 5111, 5112, 5113, 5114, 5120, 5121, 5122, 5355, 5357
*SOLID SECTION, ELSET=material-93, MATERIAL=material-93
*ELSET, ELSET=material-98
674, 676, 678, 699, 700, 2636, 2637, 3001, 3661, 5254
*SOLID SECTION, ELSET=material-98, MATERIAL=material-98
*ELSET, ELSET=material-99
2737, 2738, 3278, 3280, 3667, 4816, 4817, 5217, 5218
*SOLID SECTION, ELSET=material-99, MATERIAL=material-99
*ELSET, ELSET=material-178
947, 971, 973, 974, 1501, 1693, 2781, 3928, 3929, 4118, 4519, 5242, 5243, 5244, 5245
*SOLID SECTION, ELSET=material-178, MATERIAL=material-178
*ELSET, ELSET=material-179
876, 877, 878, 909, 1593, 1594, 3226, 3227, 3228, 4807, 4808, 4809
*SOLID SECTION, ELSET=material-179, MATERIAL=material-179
*ELSET, ELSET=material-174
1265, 1266, 1325, 2196, 2197, 2313, 2314, 2315, 2806, 2807, 2808, 2870, 3372, 4075, 4077, 4127, 
4128, 4166, 4859, 5303
*SOLID SECTION, ELSET=material-174, MATERIAL=material-174
*ELSET, ELSET=material-175
1020, 1022, 1476, 1477, 1892, 1893, 1959, 1960, 2049, 2050, 2232, 2233, 2458, 2459, 3076, 3077, 
3618, 3619, 3959, 3975, 3976, 4227, 4229, 4230, 4852, 4853, 4854, 4979, 5143, 5144, 5337, 5340, 
5424, 5425, 5426
*SOLID SECTION, ELSET=material-175, MATERIAL=material-175
*ELSET, ELSET=material-176
994, 2774, 2960, 2963, 3023, 3024, 3025, 3544, 4431, 4570, 4571
*SOLID SECTION, ELSET=material-176, MATERIAL=material-176
*ELSET, ELSET=material-177
798, 829, 830, 831, 1946, 1947, 2635, 2999, 3054, 3285, 3427, 3818, 3819, 3881, 3882, 3883, 
4359, 4372, 4500, 5367
*SOLID SECTION, ELSET=material-177, MATERIAL=material-177
*ELSET, ELSET=material-170
854, 855, 867, 886, 887, 1544, 2237, 2238, 2716, 2717, 2951, 2952, 3292, 3322, 3323, 3639, 
3641, 3642, 3770, 3772, 3783, 3861, 4089, 4090, 4132, 4342, 4343, 5021, 5023
*SOLID SECTION, ELSET=material-170, MATERIAL=material-170
*ELSET, ELSET=material-171
807, 809, 810, 811, 846, 847, 848, 2341, 2342, 2343, 2580, 2583, 3623, 3624, 4446
*SOLID SECTION, ELSET=material-171, MATERIAL=material-171
*ELSET, ELSET=material-172
1017, 1018, 1042, 1043, 1044, 1045, 1072, 1073, 1074, 1075, 1076, 1077, 1108, 1109, 1110, 1111, 
1135, 1136, 1138, 1139, 1140, 1141, 1161, 1162, 1163, 1179, 1180, 1201, 1363, 1364, 1378, 1379, 
1401, 1402, 1430, 1515, 1516, 1580, 1581, 1597, 1598, 1842, 1843, 2020, 2281, 2478, 2886, 2887, 
2888, 2897, 2898, 2899, 2906, 3026, 3092, 3276, 3835, 3836, 4084, 4114, 4125, 4268, 4430, 4432, 
4434, 4435, 4436, 4498, 4736, 4875, 4877, 4897, 4898, 5095, 5099, 5100, 5101, 5215
*SOLID SECTION, ELSET=material-172, MATERIAL=material-172
*ELSET, ELSET=material-173
781, 813, 814, 815, 1804, 2185, 3290, 3872, 3873, 3874, 5129, 5130, 5131
*SOLID SECTION, ELSET=material-173, MATERIAL=material-173
*ELSET, ELSET=material-181
1276, 1279, 1305, 3384, 3385, 3741, 3932, 3933, 5199, 5200, 5246, 5247, 5248, 5310, 5311, 5312, 
5313
*SOLID SECTION, ELSET=material-181, MATERIAL=material-181
*ELSET, ELSET=material-180
1116, 1117, 1118, 1119, 1147, 1168, 1169, 1193, 1194, 1212, 1480, 1771, 1772, 1924, 1925, 2272, 
2284, 2650, 2651, 2795, 2796, 3037, 3646, 3647, 3800, 3913, 4422, 4583, 4584, 5061, 5062, 5250, 
5251, 5252, 5253
*SOLID SECTION, ELSET=material-180, MATERIAL=material-180
*ELSET, ELSET=material-183
970, 986, 987, 989, 1001, 1002, 1003, 1004, 1005, 1025, 1026, 1027, 1049, 1050, 1051, 1052, 
1053, 1054, 1055, 1056, 1057, 1085, 1086, 1087, 1088, 1090, 1091, 1093, 1095, 1461, 1462, 1470, 
1533, 1534, 1582, 1781, 1846, 1926, 1970, 1971, 2125, 2126, 2158, 2224, 2225, 2351, 2353, 2399, 
2457, 2621, 2622, 2623, 2876, 2877, 3236, 3237, 3335, 3414, 4096, 4144, 4403, 4946, 4998, 4999
*SOLID SECTION, ELSET=material-183, MATERIAL=material-183
*ELSET, ELSET=material-182
714, 746, 779, 1367, 1368, 1898, 2028, 2029, 2104, 2105, 2331, 2495, 2841, 2885, 3327, 3405, 
3407, 3705, 4109, 4374, 4375, 4376, 4688, 4689, 5308, 5309
*SOLID SECTION, ELSET=material-182, MATERIAL=material-182
*ELSET, ELSET=material-185
802, 803, 804, 805, 806, 808, 843, 844, 845, 881, 916, 920, 921, 922, 1537, 1538, 
2372, 2373, 2411, 2412, 2413, 2988, 3156, 3157, 3158, 3159, 3160, 3161, 3162, 3163, 3164, 3165, 
3169, 3170, 3172, 3302, 3303, 3442, 3443, 3512, 3622, 3625, 3674, 4591
*SOLID SECTION, ELSET=material-185, MATERIAL=material-185
*ELSET, ELSET=material-184
812, 1797, 1798, 4511, 4513, 4514
*SOLID SECTION, ELSET=material-184, MATERIAL=material-184
*ELSET, ELSET=material-187
1142, 2027, 2240, 2241, 2392, 3416, 3815, 3817, 3931, 3972, 4026, 4027, 4028, 4073, 4074, 4356, 
4357, 4358, 4433, 4494
*SOLID SECTION, ELSET=material-187, MATERIAL=material-187
*ELSET, ELSET=material-186
862, 2528, 3441, 3513, 3608, 3609, 3735, 4115, 4117
*SOLID SECTION, ELSET=material-186, MATERIAL=material-186
*ELSET, ELSET=material-189
1019, 1021, 1046, 1080, 1081, 1568, 1569, 1872, 1873, 3565, 3814, 3904, 4171, 4246
*SOLID SECTION, ELSET=material-189, MATERIAL=material-189
*ELSET, ELSET=material-188
907, 908, 910, 912, 952, 953, 978, 979, 1013, 1014, 1015, 1016, 1037, 1038, 1039, 1040, 
1058, 1059, 1060, 1061, 1062, 1099, 1100, 1126, 1127, 1128, 1129, 1130, 1131, 1132, 1133, 1152, 
1153, 1154, 1155, 1156, 1157, 1159, 1176, 1177, 1374, 1375, 1384, 1385, 1427, 1428, 1491, 1492, 
1518, 1519, 1610, 1611, 1623, 1644, 1645, 1675, 1676, 1699, 1758, 1826, 1916, 1917, 1942, 1943, 
1978, 1979, 2221, 2222, 2247, 2277, 2278, 2294, 2295, 2296, 2297, 2851, 2852, 2853, 2854, 2855, 
3224, 3225, 3415, 3764, 3765, 3766, 3827, 3828, 4197, 4274, 4275, 4276, 4277, 4892, 4893, 4894, 
5096, 5189, 5191
*SOLID SECTION, ELSET=material-188, MATERIAL=material-188
*ELSET, ELSET=material-218
1863, 2330, 2916, 3314, 3315, 3606, 4318, 4983
*SOLID SECTION, ELSET=material-218, MATERIAL=material-218
*ELSET, ELSET=material-169
800, 837, 838, 839, 1510, 1557, 1722, 2189, 2214, 2215, 2219, 2220, 2664, 2871, 2935, 2936, 
3326, 3679, 4015, 4377, 4378, 4849, 4850, 4851, 5117, 5118, 5119, 5325, 5327, 5414, 5415, 5416
*SOLID SECTION, ELSET=material-169, MATERIAL=material-169
*ELSET, ELSET=material-168
828, 859, 872, 873, 874, 875, 896, 900, 901, 902, 903, 904, 905, 937, 1599, 1660, 
1728, 2063, 2064, 2175, 2200, 2201, 2248, 2249, 2996, 2997, 2998, 3181, 3253, 3254, 3268, 3270, 
3286, 3361, 3362, 3363, 3428, 3429, 3939, 3940, 3941, 4062, 4063, 5365, 5366
*SOLID SECTION, ELSET=material-168, MATERIAL=material-168
*ELSET, ELSET=material-167
918, 919, 2487, 3330, 3672, 3673, 4517
*SOLID SECTION, ELSET=material-167, MATERIAL=material-167
*ELSET, ELSET=material-166
841, 917, 2482, 2969, 2970, 2971, 3635, 3637, 3638, 3655, 3656, 3747, 3866, 4287, 4385, 4387, 
4388, 4389, 4390, 5326
*SOLID SECTION, ELSET=material-166, MATERIAL=material-166
*ELSET, ELSET=material-165
2340, 2344, 2529, 2893, 2894, 2895, 3755, 3756, 3838, 4086, 4087, 4088, 4116, 4445, 4665, 4696, 
4699, 4818, 5097, 5098, 5328, 5329, 5502, 5503
*SOLID SECTION, ELSET=material-165, MATERIAL=material-165
*ELSET, ELSET=material-164
2607, 2627, 2905, 3964, 3966, 4308, 4394, 4395, 4396, 4419, 4647, 4915, 5264, 5265, 5266
*SOLID SECTION, ELSET=material-164, MATERIAL=material-164
*ELSET, ELSET=material-163
1181, 1507, 2436, 2647, 3533, 3668, 3973, 3974, 4495, 4595, 4596, 4597
*SOLID SECTION, ELSET=material-163, MATERIAL=material-163
*ELSET, ELSET=material-162
945, 946, 1692, 2009, 2715, 2718, 3632, 3633, 3634, 3739, 4119, 4520, 4521
*SOLID SECTION, ELSET=material-162, MATERIAL=material-162
*ELSET, ELSET=material-161
3135, 4137, 4697, 4698, 5504
*SOLID SECTION, ELSET=material-161, MATERIAL=material-161
*ELSET, ELSET=material-160
3166, 3167, 3168, 3171, 3173, 4288
*SOLID SECTION, ELSET=material-160, MATERIAL=material-160
*ELSET, ELSET=material-6
1877, 1878, 2479, 2684, 2685, 4510, 4512, 5421, 5495, 5497
*SOLID SECTION, ELSET=material-6, MATERIAL=material-6
*ELSET, ELSET=material-18
2551, 2552, 3773, 3774, 4677, 4678, 4679
*SOLID SECTION, ELSET=material-18, MATERIAL=material-18
*ELSET, ELSET=material-19
545, 546, 605, 606, 636, 637, 663, 664, 665, 689, 690, 745, 777, 1629, 1630, 1816, 
1817, 2127, 2128, 2842, 3478, 3675, 3677, 3704, 3711, 3712, 3713, 3749, 3750, 3753, 3990, 3991, 
3992, 3993, 4548, 4549, 4629, 4630
*SOLID SECTION, ELSET=material-19, MATERIAL=material-19
*ELSET, ELSET=material-7
4364, 4367, 5323, 5324
*SOLID SECTION, ELSET=material-7, MATERIAL=material-7
*ELSET, ELSET=material-14
629, 687, 2762, 2910, 2911, 2931, 3132, 3133, 3134, 3310, 4032, 4506, 5441
*SOLID SECTION, ELSET=material-14, MATERIAL=material-14
*ELSET, ELSET=material-15
2257, 3244, 3247, 4799, 4986, 4987, 4988, 4989
*SOLID SECTION, ELSET=material-15, MATERIAL=material-15
*ELSET, ELSET=material-16
625, 734, 735, 736, 737, 738, 760, 761, 762, 763, 764, 765, 792, 793, 794, 795, 
796, 797, 822, 823, 824, 825, 826, 827, 856, 857, 858, 868, 869, 870, 871, 888, 
889, 890, 891, 892, 893, 894, 895, 897, 898, 899, 927, 928, 929, 930, 932, 933, 
935, 936, 1390, 1391, 1418, 1419, 1489, 1574, 1602, 1603, 1604, 1605, 1627, 1729, 1794, 1913, 
1988, 1989, 2030, 2031, 2067, 2068, 2077, 2078, 2085, 2086, 2099, 2100, 2107, 2108, 2135, 2136, 
2203, 2204, 2205, 2206, 2305, 2414, 2603, 2606, 2655, 2656, 2657, 2659, 2713, 2912, 2913, 2945, 
2946, 3047, 3048, 3049, 3050, 3088, 3119, 3120, 3191, 3192, 3294, 3306, 3307, 3308, 3359, 3506, 
3510, 3511, 3615, 3729, 3857, 3858, 3859, 3860, 3950, 4005, 4006, 4064, 4190, 4269, 4289, 4290, 
4365, 4366, 4909, 4910, 4911, 4912, 5007, 5008, 5009, 5153, 5154, 5155
*SOLID SECTION, ELSET=material-16, MATERIAL=material-16
*ELSET, ELSET=material-17
607, 608, 640, 641, 644, 1921, 2354, 2355, 2772, 2835, 2836, 3430, 4081, 5262, 5263
*SOLID SECTION, ELSET=material-17, MATERIAL=material-17
*ELSET, ELSET=material-10
671, 692, 694, 695, 696, 1672, 2593, 3255, 3329, 3340, 3757, 3758, 5168, 5169, 5170, 5171, 
5172, 5270, 5271, 5272, 5273
*SOLID SECTION, ELSET=material-10, MATERIAL=material-10
*ELSET, ELSET=material-11
648, 673, 677, 2882, 3603, 3605, 4321, 4322, 4543
*SOLID SECTION, ELSET=material-11, MATERIAL=material-11
*ELSET, ELSET=material-12
1739, 1958, 3406, 3538, 3960, 3962, 4138, 4581, 4582
*SOLID SECTION, ELSET=material-12, MATERIAL=material-12
*ELSET, ELSET=material-13
638, 639, 642, 666, 667, 2025, 2356, 2358, 2359, 2360, 2361, 4725, 4726
*SOLID SECTION, ELSET=material-13, MATERIAL=material-13
*ELSET, ELSET=material-5
681, 701, 702, 703, 725, 726, 727, 728, 2638, 2639, 3446, 3600, 3601, 4814, 4965, 4968, 
4969, 4970, 5179, 5180, 5230, 5232, 5473, 5474
*SOLID SECTION, ELSET=material-5, MATERIAL=material-5
*ELSET, ELSET=material-213
914, 915, 991, 992, 2069, 2070, 2477, 2518, 2937, 2938, 2956, 3027, 3313, 3541, 4102, 4179, 
4523, 4694
*SOLID SECTION, ELSET=material-213, MATERIAL=material-213
*ELSET, ELSET=material-2
698, 721, 722, 751, 752, 1949, 2371, 2480, 2511, 2512, 2573, 2581, 2582, 2632, 3002, 3003, 
3004, 3005, 3195, 3196, 3300, 3301, 3431, 3432, 3664, 3977
*SOLID SECTION, ELSET=material-2, MATERIAL=material-2
*ELSET, ELSET=material-212
2346, 2347, 3126, 3267, 3269, 3364, 3455, 3982, 3984, 4482, 5256, 5257, 5259
*SOLID SECTION, ELSET=material-212, MATERIAL=material-212
*ELSET, ELSET=material-3
711, 712, 713, 739, 740, 741, 742, 743, 1408, 1409, 2336, 2338, 2608, 2609, 2752, 2753, 
3309, 3579, 3580, 3775, 3776, 3777, 4163, 4165, 4361, 4362, 4363, 4796, 4797, 4812, 5442, 5443
*SOLID SECTION, ELSET=material-3, MATERIAL=material-3
*ELSET, ELSET=material-125
1994, 1995, 2526, 2649, 3130, 3131, 3487, 3589, 4008, 4010, 4056, 4568, 4569, 4624, 4625, 4631, 
4632, 4633, 4634, 4881
*SOLID SECTION, ELSET=material-125, MATERIAL=material-125
*ELSET, ELSET=material-236
1078, 1079, 1974, 2019, 2385, 3850, 3930, 4048, 4049, 4050, 4876
*SOLID SECTION, ELSET=material-236, MATERIAL=material-236
*ELSET, ELSET=material-1
693, 719, 720, 2985, 2986, 3688, 3759, 4379, 4382, 5260, 5261
*SOLID SECTION, ELSET=material-1, MATERIAL=material-1
*ELSET, ELSET=material-158
791, 2513, 2515, 2516, 2517, 2697, 4250, 4251, 4252, 4311, 4312, 5022
*SOLID SECTION, ELSET=material-158, MATERIAL=material-158
*ELSET, ELSET=material-159
879, 880, 911, 1445, 1473, 1488, 1694, 1695, 2484, 2485, 2586, 2722, 2724, 2933, 2934, 3345, 
3346, 3636, 3743, 3744, 4198, 4662, 4663
*SOLID SECTION, ELSET=material-159, MATERIAL=material-159
*ELSET, ELSET=material-152
1404, 2023, 2720, 3500, 3501, 3563, 3564, 4069, 4562, 4599
*SOLID SECTION, ELSET=material-152, MATERIAL=material-152
*ELSET, ELSET=material-153
1184, 1185, 1186, 1188, 1206, 1539, 1540, 1734, 2556, 2759, 2785, 2786, 4120, 4607
*SOLID SECTION, ELSET=material-153, MATERIAL=material-153
*ELSET, ELSET=material-150
1210, 1211, 1213, 1214, 1232, 2712, 3104, 3105, 3144, 3645, 4173, 4670, 4878, 4879, 4880, 4938, 
5053, 5054, 5055, 5056, 5057, 5059, 5283, 5284, 5285, 5411, 5413, 5417, 5418
*SOLID SECTION, ELSET=material-150, MATERIAL=material-150
*ELSET, ELSET=material-151
2790, 3096, 4957, 4958, 4959, 4960
*SOLID SECTION, ELSET=material-151, MATERIAL=material-151
*ELSET, ELSET=material-156
2510, 2519, 2679, 2680, 3083, 3914, 3915, 3945, 3946, 5127, 5291, 5292
*SOLID SECTION, ELSET=material-156, MATERIAL=material-156
*ELSET, ELSET=material-157
816, 817, 819, 850, 851, 852, 853, 863, 864, 865, 882, 883, 884, 1751, 1919, 1948, 
1963, 1964, 2089, 2505, 2507, 2594, 3381, 3706, 3707, 3897, 3898, 3899, 4220, 4221, 4222, 4309, 
4310, 4832, 4834, 4913, 4914, 5346, 5347, 5348, 5493, 5494
*SOLID SECTION, ELSET=material-157, MATERIAL=material-157
*ELSET, ELSET=material-154
1178, 3955, 3956, 4863, 4864, 4865
*SOLID SECTION, ELSET=material-154, MATERIAL=material-154
*ELSET, ELSET=material-155
984, 1369, 1370, 1455, 1495, 2838, 2883, 2884, 3182, 3183, 3184, 3185, 3654, 3863, 3963, 3965, 
4045, 4070, 4071, 4072, 4298, 4648, 4649, 5128
*SOLID SECTION, ELSET=material-155, MATERIAL=material-155
*ELSET, ELSET=material-21
556, 559, 561, 588, 617, 619, 620, 622, 653, 654, 682, 683, 684, 685, 704, 705, 
706, 707, 708, 709, 710, 729, 730, 731, 732, 1440, 1612, 1613, 1649, 1704, 1705, 1715, 
1716, 1773, 1840, 1908, 2003, 2065, 2066, 2081, 2082, 2147, 2149, 2151, 2152, 2212, 2213, 2218, 
2273, 2274, 2289, 2290, 2452, 2453, 2454, 2455, 2456, 2514, 2520, 2658, 2689, 2765, 2857, 2858, 
2859, 3293, 3295, 3357, 3358, 3480, 3481, 3489, 3507, 3508, 3509, 3696, 3771, 3896, 4059, 4199, 
4233, 4460, 4469, 4470, 4471, 4472, 4473, 4533, 4589, 4593, 4594, 4702, 4703, 4704, 4715, 4966, 
5475
*SOLID SECTION, ELSET=material-21, MATERIAL=material-21
*ELSET, ELSET=material-20
578, 579, 580, 1457, 1871, 2327, 2501, 2525, 2527, 2732, 2940, 2941, 2980, 3485, 4025, 4627, 
5030, 5031, 5032, 5210, 5389
*SOLID SECTION, ELSET=material-20, MATERIAL=material-20
*ELSET, ELSET=material-23
216, 217, 236, 237, 275, 276, 307, 308, 309, 310, 311, 333, 334, 335, 336, 337, 
338, 360, 361, 362, 1416, 1417, 1472, 1681, 1682, 1690, 1691, 1710, 1711, 1743, 1764, 1765, 
1769, 1770, 1785, 1786, 1818, 1933, 1934, 2053, 2054, 2242, 2409, 2410, 2439, 2463, 2564, 2565, 
2566, 2955, 2972, 2973, 2974, 2975, 2976, 3328, 3376, 3536, 3545, 3546, 3671, 3717, 3718, 3936, 
3937, 4167, 4168, 4169, 4271, 4272, 4273, 4304, 4305, 4554, 4555, 4646, 5035, 5036, 5037, 5038
*SOLID SECTION, ELSET=material-23, MATERIAL=material-23
*ELSET, ELSET=material-22
581, 582, 583, 584, 611, 647, 672, 1395, 1882, 1883, 2116, 2250, 2324, 2325, 2633, 2634, 
2921, 3021, 3022, 3291, 3590, 3591, 3592, 3621, 4542, 4557, 4566, 4567, 5010, 5011, 5012, 5013, 
5181, 5182, 5183, 5184, 5185, 5333
*SOLID SECTION, ELSET=material-22, MATERIAL=material-22
*ELSET, ELSET=material-25
213, 1559, 2190, 2756, 2896, 3271, 3272, 4012, 4150, 4151, 4152, 4153, 4181, 4182, 4183, 4993, 
5067
*SOLID SECTION, ELSET=material-25, MATERIAL=material-25
*ELSET, ELSET=material-24
3031, 3793, 5001, 5176, 5177, 5178
*SOLID SECTION, ELSET=material-24, MATERIAL=material-24
*ELSET, ELSET=material-27
88, 132, 166, 1448, 1449, 1517, 2282, 2283, 2460, 3128, 3394, 3395, 3796, 4106, 4465, 4501, 
4502, 4711, 5085
*SOLID SECTION, ELSET=material-27, MATERIAL=material-27
*ELSET, ELSET=material-26
3332, 3333, 3399, 3994, 3995, 4035, 4344, 4405, 4406, 4416, 4417, 4792, 4793, 4794, 4795
*SOLID SECTION, ELSET=material-26, MATERIAL=material-26
*ELSET, ELSET=material-29
382, 405, 1558, 2611, 4651, 4652, 4653, 4654, 4655, 5161
*SOLID SECTION, ELSET=material-29, MATERIAL=material-29
*ELSET, ELSET=material-28
208, 2246, 2472, 2474, 2475, 2476, 2693, 2694, 2695, 2696, 3251, 3297, 3298, 3299, 3411, 3452, 
3453, 3811, 4411, 4412, 4413, 4415
*SOLID SECTION, ELSET=material-28, MATERIAL=material-28
*ELSET, ELSET=material-230
2900, 2901, 2902, 4093, 4094, 4095, 4675, 4676
*SOLID SECTION, ELSET=material-230, MATERIAL=material-230
*ELSET, ELSET=material-246
1182, 1183, 1202, 1203, 1204, 1205, 1226, 1227, 1506, 2021, 2022, 2306, 2498, 2499, 2500, 2860, 
3066, 3404, 3525, 3526, 3534, 3535, 3733, 3907, 3908, 4608, 4609, 5108, 5397, 5401
*SOLID SECTION, ELSET=material-246, MATERIAL=material-246
*ELSET, ELSET=material-244
1191, 1192, 1373, 2677, 2678, 3090, 3343, 3900, 3901, 5206
*SOLID SECTION, ELSET=material-244, MATERIAL=material-244
*ELSET, ELSET=material-245
1341, 1573, 4572, 5335, 5336, 5341
*SOLID SECTION, ELSET=material-245, MATERIAL=material-245
*ELSET, ELSET=material-242
733, 756, 757, 758, 759, 785, 787, 788, 789, 790, 818, 820, 821, 1556, 1724, 1725, 
1787, 1915, 1923, 1965, 1966, 2000, 2378, 2506, 2508, 2548, 2549, 2550, 2698, 2699, 2745, 2746, 
2747, 2748, 3186, 3187, 3640, 3708, 4967
*SOLID SECTION, ELSET=material-242, MATERIAL=material-242
*ELSET, ELSET=material-243
1167, 3387, 5063
*SOLID SECTION, ELSET=material-243, MATERIAL=material-243
*ELSET, ELSET=material-240
1209, 2681, 3386, 3470, 3628, 3885, 4518, 4598, 4600, 4717, 4718, 4888, 4889, 5064, 5065, 5149, 
5150, 5151, 5152
*SOLID SECTION, ELSET=material-240, MATERIAL=material-240
*ELSET, ELSET=material-241
1144, 1164, 1656, 1657, 3212, 4744, 4745, 4746, 4747
*SOLID SECTION, ELSET=material-241, MATERIAL=material-241
*ELSET, ELSET=material-224
1244, 1245, 1270, 1271, 1365, 1366, 1436, 1914, 2643, 2644, 2645, 2749, 3100, 3403, 3417, 4061, 
5344, 5345
*SOLID SECTION, ELSET=material-224, MATERIAL=material-224
*ELSET, ELSET=material-225
1006, 1007, 1008, 1029, 1471, 1583, 2352, 2545, 2546, 2547, 3154, 3927, 4098, 4099, 5390, 5391, 
5392, 5393
*SOLID SECTION, ELSET=material-225, MATERIAL=material-225
*ELSET, ELSET=material-226
1199, 1222, 1223, 1224, 1237, 1238, 1239, 1240, 1261, 1262, 1263, 1264, 1292, 1293, 1294, 1295, 
1321, 1322, 1323, 1324, 1498, 1499, 1505, 1616, 1617, 1618, 1658, 1659, 1712, 1713, 1726, 1792, 
1793, 1811, 1812, 1961, 1962, 2006, 2236, 2809, 2826, 2827, 2994, 2995, 3887, 3888, 3889, 3890, 
4611, 4612, 4613, 4895, 4896, 4927, 4928
*SOLID SECTION, ELSET=material-226, MATERIAL=material-226
*ELSET, ELSET=material-227
1030, 2660, 3529, 4201, 4341, 4371, 4485, 4552, 4707, 4708, 4709, 4710, 4768, 4769, 4819, 4821, 
4822, 4823
*SOLID SECTION, ELSET=material-227, MATERIAL=material-227
*ELSET, ELSET=material-220
2509, 4218, 4219, 4346, 4347
*SOLID SECTION, ELSET=material-220, MATERIAL=material-220
*ELSET, ELSET=material-221
1032, 3060, 3061, 3062, 3069, 3071, 3528, 3532, 3730, 3731, 3867, 3909, 4484, 5295, 5296, 5470
*SOLID SECTION, ELSET=material-221, MATERIAL=material-221
*ELSET, ELSET=material-222
985, 999, 1000, 1024, 1422, 2839, 3519, 3653, 4046, 4047, 4345, 4348, 5293, 5294, 5456, 5457, 
5458, 5459
*SOLID SECTION, ELSET=material-222, MATERIAL=material-222
*ELSET, ELSET=material-223
968, 969, 972, 988, 990, 1619, 1620, 1679, 2033, 2450, 2451, 4100, 4522
*SOLID SECTION, ELSET=material-223, MATERIAL=material-223
*ELSET, ELSET=material-228
923, 924, 944, 958, 959, 960, 961, 962, 996, 1500, 1522, 2263, 2861, 2961, 2962, 2964, 
3331, 3542, 3543, 3855, 3856, 4004, 4180, 4316, 4317, 4515, 4516, 5088, 5089, 5090, 5091, 5092
*SOLID SECTION, ELSET=material-228, MATERIAL=material-228
*ELSET, ELSET=material-229
993, 1041, 1070, 1575, 1576, 1951, 2094, 2301, 2334, 2890, 2891, 2892, 2957, 3396, 3644, 4111, 
4113, 4692, 4693, 4695, 4839, 4840, 4841, 4842, 5460
*SOLID SECTION, ELSET=material-229, MATERIAL=material-229
*ELSET, ELSET=material-145
1231, 1253, 1277, 1281, 1503, 1520, 1521, 1735, 1736, 1740, 1741, 2161, 2162, 2304, 2393, 2394, 
2395, 3086, 3087, 3382, 3383, 3469, 3742, 4949, 4950, 4951, 5520
*SOLID SECTION, ELSET=material-145, MATERIAL=material-145
*ELSET, ELSET=material-144
1247, 3894, 5487, 5489, 5491, 5492
*SOLID SECTION, ELSET=material-144, MATERIAL=material-144
*ELSET, ELSET=material-147
1229, 1230, 1275, 2928, 3150, 3151, 3685, 3934, 3968, 3969, 4158, 4160, 4258, 4259, 4657, 5198
*SOLID SECTION, ELSET=material-147, MATERIAL=material-147
*ELSET, ELSET=material-146
2555, 2557, 4060, 4224, 4225, 5437, 5488, 5490
*SOLID SECTION, ELSET=material-146, MATERIAL=material-146
*ELSET, ELSET=material-141
1225, 1241, 1243, 1454, 1650, 2862, 2863, 2864, 3099, 3216, 3217, 3393, 3906, 4397, 4398, 4860, 
5107, 5396
*SOLID SECTION, ELSET=material-141, MATERIAL=material-141
*ELSET, ELSET=material-140
1249, 1250, 1251, 2423, 2628, 2629, 2793, 2794, 3716, 4253, 4254
*SOLID SECTION, ELSET=material-140, MATERIAL=material-140
*ELSET, ELSET=material-143
1254, 1282, 1283, 1284, 1885, 1886, 2303, 2310, 3282, 3283, 3284, 4947, 4948, 5058, 5519
*SOLID SECTION, ELSET=material-143, MATERIAL=material-143
*ELSET, ELSET=material-142
4558, 5132, 5133, 5134
*SOLID SECTION, ELSET=material-142, MATERIAL=material-142
*ELSET, ELSET=material-149
1200, 2055, 2169, 2170, 2228, 2229, 3013, 3014, 3015, 3277, 3439, 3440, 3726, 3957, 3958, 4076, 
4368, 4369, 4370, 4752, 4753, 4857, 4858, 5371, 5372, 5373, 5376
*SOLID SECTION, ELSET=material-149, MATERIAL=material-149
*ELSET, ELSET=material-148
1268, 1881, 1918, 2144, 2398, 2620, 3585, 3586, 3833, 3834, 4855, 4856, 5213, 5214, 5216
*SOLID SECTION, ELSET=material-148, MATERIAL=material-148
*ELSET, ELSET=material-36
113, 114, 145, 149, 151, 152, 153, 155, 176, 177, 178, 193, 194, 195, 196, 197, 
1403, 1437, 1977, 3127, 3177, 3178, 3524, 4078, 4293, 4496, 4553, 4556, 5280, 5281, 5282, 5287, 
5314, 5315, 5316, 5330, 5331, 5444, 5445, 5446
*SOLID SECTION, ELSET=material-36, MATERIAL=material-36
*ELSET, ELSET=material-37
2419, 3433, 3434, 4055, 4057, 4491, 4492, 4493, 4531, 4605, 4606, 4635, 5043, 5047, 5147, 5148
*SOLID SECTION, ELSET=material-37, MATERIAL=material-37
*ELSET, ELSET=material-34
2328, 2329, 3320, 3789, 3996, 3997, 3998, 4712, 4713, 4925, 4926
*SOLID SECTION, ELSET=material-34, MATERIAL=material-34
*ELSET, ELSET=material-35
192, 1446, 1447, 2155, 2730, 2787, 2848, 2849, 2850, 2903, 3794, 3830, 3844, 4933, 4934, 4935
*SOLID SECTION, ELSET=material-35, MATERIAL=material-35
*ELSET, ELSET=material-32
140, 141, 175, 2486, 2587, 2588, 3829, 3922, 3924, 4107, 4108, 4827
*SOLID SECTION, ELSET=material-32, MATERIAL=material-32
*ELSET, ELSET=material-33
2574, 3136, 3229, 3604, 4000, 4327, 4545, 4564, 4565, 5359, 5360
*SOLID SECTION, ELSET=material-33, MATERIAL=material-33
*ELSET, ELSET=material-30
82, 83, 121, 122, 123, 124, 157, 158, 159, 160, 179, 180, 181, 182, 183, 184, 
198, 199, 200, 201, 202, 218, 219, 220, 221, 222, 223, 224, 239, 241, 242, 243, 
244, 245, 246, 247, 248, 278, 279, 280, 281, 282, 283, 284, 285, 286, 287, 314, 
315, 316, 317, 318, 319, 339, 340, 341, 342, 343, 344, 363, 364, 365, 366, 367, 
368, 386, 387, 388, 389, 390, 391, 419, 420, 421, 422, 423, 424, 425, 426, 427, 
428, 449, 450, 451, 452, 453, 454, 455, 456, 457, 481, 482, 483, 484, 515, 516, 
517, 518, 519, 521, 523, 539, 540, 543, 544, 603, 1380, 1381, 1393, 1394, 1425, 1426, 
1431, 1452, 1453, 1460, 1465, 1466, 1467, 1468, 1478, 1479, 1513, 1514, 1527, 1528, 1554, 1555, 
1577, 1640, 1641, 1646, 1647, 1662, 1663, 1685, 1686, 1697, 1698, 1706, 1707, 1708, 1709, 1717, 
1718, 1720, 1721, 1737, 1738, 1744, 1745, 1759, 1760, 1761, 1762, 1767, 1768, 1795, 1796, 1809, 
1810, 1854, 1855, 1857, 1858, 1867, 1868, 1940, 1941, 1968, 1969, 1984, 1985, 1986, 1987, 2061, 
2062, 2102, 2103, 2111, 2112, 2140, 2141, 2187, 2188, 2230, 2231, 2239, 2258, 2259, 2269, 2270, 
2291, 2400, 2401, 2402, 2521, 2522, 2533, 2534, 2535, 2536, 2672, 2673, 2843, 2866, 3287, 3502, 
3719, 4021, 4022, 4024, 4103, 4104, 4105, 4205, 4206, 4208, 4331, 4579, 4580, 4601, 4602, 4642, 
4643, 4644, 4645, 4700, 5033, 5034, 5158, 5406, 5453
*SOLID SECTION, ELSET=material-30, MATERIAL=material-30
*ELSET, ELSET=material-31
552, 553, 3125, 3129, 3620, 4009, 5223, 5224, 5225, 5226
*SOLID SECTION, ELSET=material-31, MATERIAL=material-31
*ELSET, ELSET=material-38
530, 531, 3435, 4623, 4626, 4810, 4997, 5045, 5046, 5209, 5212, 5387, 5388
*SOLID SECTION, ELSET=material-38, MATERIAL=material-38
*ELSET, ELSET=material-39
697, 2388, 2589, 2590, 2987, 2989, 3365
*SOLID SECTION, ELSET=material-39, MATERIAL=material-39
*ELSET, ELSET=material-237
1089, 1092, 1094, 1096, 1114, 1115, 1145, 1146, 1165, 1166, 1388, 1389, 1628, 1654, 1655, 1849, 
1850, 2007, 2008, 2096, 2165, 2166, 2719, 2812, 2924, 2925, 3334, 3341, 3342, 3344, 3669, 4159, 
4560, 4561, 4945, 5450, 5451
*SOLID SECTION, ELSET=material-237, MATERIAL=material-237
*ELSET, ELSET=material-87
73, 75, 102, 104, 106, 107, 108, 109, 111, 112, 143, 144, 146, 147, 1636, 1637, 
1667, 1789, 2118, 2119, 2488, 2610, 2904, 3242, 3243, 3289, 3336, 3571, 3572, 4281, 4284, 4940, 
4942, 4961, 4962, 4963, 5332, 5472
*SOLID SECTION, ELSET=material-87, MATERIAL=material-87
*ELSET, ELSET=material-235
1063, 2490, 4112, 4140, 4392, 4393, 4577, 5201, 5202, 5466, 5467
*SOLID SECTION, ELSET=material-235, MATERIAL=material-235
*ELSET, ELSET=material-234
1031, 1920, 3423, 3842, 3843, 3876, 3877, 3884, 3886, 4244, 4245, 4314, 4315, 5468, 5469
*SOLID SECTION, ELSET=material-234, MATERIAL=material-234
*ELSET, ELSET=material-233
1248, 1272, 1298, 1834, 2365, 3790, 4476, 4478, 4869, 4870, 5409
*SOLID SECTION, ELSET=material-233, MATERIAL=material-233
*ELSET, ELSET=material-192
1064, 1065, 1066, 1068
*SOLID SECTION, ELSET=material-192, MATERIAL=material-192
*ELSET, ELSET=material-231
998, 1023, 1048, 1592, 2120, 2739, 2740, 2741, 2742, 2908, 2909, 3263, 3264, 3413, 3516, 3517, 
3518, 3596, 4091, 4092, 4097, 4188, 4297, 4299
*SOLID SECTION, ELSET=material-231, MATERIAL=material-231
*ELSET, ELSET=material-86
372, 373, 398, 399, 400, 401, 439, 440, 441, 442, 1632, 1633, 1955, 1956, 1967, 2389, 
2415, 2416, 2417, 2591, 2592, 3230, 3231, 3666, 3723, 4215, 4216, 4217, 4636, 4638, 5070, 5071, 
5146
*SOLID SECTION, ELSET=material-86, MATERIAL=material-86
*ELSET, ELSET=material-239
1187, 1189, 1190, 2553, 2554, 3210, 3211, 3373, 3374, 3824, 4507, 4508, 4763, 4764, 5203, 5205, 
5363
*SOLID SECTION, ELSET=material-239, MATERIAL=material-239
*ELSET, ELSET=material-238
2308, 2604, 4620, 4621, 4622, 5135, 5136, 5204, 5364
*SOLID SECTION, ELSET=material-238, MATERIAL=material-238
*ELSET, ELSET=material-130
1303, 1304, 1306, 1307, 1308, 1309, 1310, 1342, 1343, 1407, 1570, 1571, 1733, 1835, 3007, 3008, 
3009, 3445, 4423, 4425, 5342
*SOLID SECTION, ELSET=material-130, MATERIAL=material-130
*ELSET, ELSET=material-131
1313, 1314, 1315, 1316, 1354, 1355, 1356, 1357, 1358, 1651, 1652, 2156, 2157, 3121, 3970, 3971, 
5361
*SOLID SECTION, ELSET=material-131, MATERIAL=material-131
*ELSET, ELSET=material-132
1278, 1280, 1311, 1312, 1344, 1345, 1346, 1347, 1348, 1349, 1350, 1351, 1463, 1464, 1490, 2311, 
2312, 2823, 3691, 3692, 4037, 4424, 4603, 4604
*SOLID SECTION, ELSET=material-132, MATERIAL=material-132
*ELSET, ELSET=material-133
1273, 1297, 1299, 1300, 1330, 1332, 1333, 1334, 1766, 2625, 3657, 3658, 4255, 4477
*SOLID SECTION, ELSET=material-133, MATERIAL=material-133
*ELSET, ELSET=material-134
1435, 1937, 2364, 3101, 4053, 4054, 4867, 4868, 5368, 5369, 5370, 5398, 5399, 5400, 5402, 5403
*SOLID SECTION, ELSET=material-134, MATERIAL=material-134
*ELSET, ELSET=material-135
1269, 2734, 3098, 3630, 3631, 4861, 5404
*SOLID SECTION, ELSET=material-135, MATERIAL=material-135
*ELSET, ELSET=material-136
1246, 1996, 1997, 3316, 4733, 4734, 4735, 5507
*SOLID SECTION, ELSET=material-136, MATERIAL=material-136
*ELSET, ELSET=material-137
3891, 3892, 3893, 3895
*SOLID SECTION, ELSET=material-137, MATERIAL=material-137
*ELSET, ELSET=material-138
1242, 1267, 1296, 1326, 1327, 1328, 1329, 1433, 1434, 1696, 1783, 1784, 2048, 2083, 2084, 2217, 
2279, 2733, 2735, 2736, 2869, 3016, 3017, 3106, 3392, 3587, 3588, 3626, 3629, 4126, 4129, 4862, 
4920, 4921, 4922, 5304, 5305, 5435, 5436
*SOLID SECTION, ELSET=material-138, MATERIAL=material-138
*ELSET, ELSET=material-139
1274, 1301, 1302, 1335, 1336, 1337, 1338, 1339, 1340, 1376, 1377, 1606, 1607, 2379, 2380, 2630, 
2631, 2797, 2926, 2927, 3684, 3686, 3967, 4170, 4427, 4428, 4573, 4574
*SOLID SECTION, ELSET=material-139, MATERIAL=material-139
*ELSET, ELSET=material-43
2406, 3464, 3467, 3468
*SOLID SECTION, ELSET=material-43, MATERIAL=material-43
*ELSET, ELSET=material-42
501, 502, 504, 505, 506, 507, 536, 537, 566, 567, 568, 569, 571, 590, 1524, 1830, 
1831, 2368, 2370, 2570, 2652, 2653, 2947, 3537, 3567, 3847, 3848, 4705, 4706, 4759, 4760, 4761, 
4762, 4885
*SOLID SECTION, ELSET=material-42, MATERIAL=material-42
*ELSET, ELSET=material-41
385, 414, 415, 416, 417, 418, 448, 1642, 1643, 1730, 2142, 2143, 2407, 2408, 2757, 2758, 
2798, 3256, 3375, 3520, 3521, 4016, 4017, 4902, 4952, 4953, 4954, 4955, 4956
*SOLID SECTION, ELSET=material-41, MATERIAL=material-41
*ELSET, ELSET=material-40
5483
*SOLID SECTION, ELSET=material-40, MATERIAL=material-40
*ELSET, ELSET=material-47
616, 618, 1412, 3103, 3611, 3697, 3698, 3699, 4313
*SOLID SECTION, ELSET=material-47, MATERIAL=material-47
*ELSET, ELSET=material-46
130, 131, 2056, 2057, 2427, 2567, 2760, 3111, 3112, 3864, 3865, 4033, 4148, 4149, 4306, 4719, 
4720, 4721
*SOLID SECTION, ELSET=material-46, MATERIAL=material-46
*ELSET, ELSET=material-45
79, 156, 2251, 2615, 2616, 2617, 2618, 2619, 2965, 2966, 2967, 3367, 3547, 4079, 4529, 4530, 
4943, 5274, 5275, 5276, 5277, 5278, 5279
*SOLID SECTION, ELSET=material-45, MATERIAL=material-45
*ELSET, ELSET=material-44
718, 1483, 1484, 2090, 2357, 3539, 3540, 3687, 3761, 3942, 3943
*SOLID SECTION, ELSET=material-44, MATERIAL=material-44
*ELSET, ELSET=material-49
238, 240, 277, 312, 313, 1683, 1684, 1747, 1748, 1837, 2504, 2954, 3232, 3483, 3938, 4270, 
4303, 5016, 5017, 5018, 5019, 5020, 5384, 5385, 5386, 5405
*SOLID SECTION, ELSET=material-49, MATERIAL=material-49
*ELSET, ELSET=material-48
95, 137, 2129, 2130, 2846, 3495, 3496, 3497, 3498, 4223, 4538, 5481
*SOLID SECTION, ELSET=material-48, MATERIAL=material-48
*ELSET, ELSET=material-202
1047, 1746, 2833, 2834, 3075, 3597, 3598, 3599, 4189, 4203, 4204, 4461, 4462, 4463, 5338, 5339
*SOLID SECTION, ELSET=material-202, MATERIAL=material-202
*ELSET, ELSET=material-203
1778, 3102, 4650, 4789, 4790, 5137, 5138, 5140
*SOLID SECTION, ELSET=material-203, MATERIAL=material-203
*ELSET, ELSET=material-200
715, 716, 717, 747, 748, 749, 750, 780, 801, 840, 842, 1723, 2307, 2481, 3097, 3122, 
3123, 3124, 3265, 3266, 3482, 3748, 3760, 3762, 4146, 4354, 4355, 4380, 4381, 4391, 4690, 4691
*SOLID SECTION, ELSET=material-200, MATERIAL=material-200
*ELSET, ELSET=material-201
766, 767, 768, 769, 770, 1561, 2015, 2016, 2178, 2179, 2584, 2585, 3074, 3778, 3779, 3780, 
3832, 3880, 4164, 4360, 4872, 4873, 4874
*SOLID SECTION, ELSET=material-201, MATERIAL=material-201
*ELSET, ELSET=material-206
1207, 1208, 1228, 1252, 1749, 1750, 2778, 2779, 2792, 3444, 3504, 3505, 3804, 3805, 3806, 4014, 
4559
*SOLID SECTION, ELSET=material-206, MATERIAL=material-206
*ELSET, ELSET=material-207
931, 934, 1807, 1808, 2348, 2349, 3043, 3044, 3045, 3046, 3868, 4916, 4917, 4918, 4919, 5195, 
5196, 5197, 5258
*SOLID SECTION, ELSET=material-207, MATERIAL=material-207
*ELSET, ELSET=material-204
2721, 2867, 2958, 2959, 3038, 3039, 3424, 3499, 3627, 3875, 4145, 4156, 4157, 4187, 4404, 4563, 
5452
*SOLID SECTION, ELSET=material-204, MATERIAL=material-204
*ELSET, ELSET=material-205
926, 3949
*SOLID SECTION, ELSET=material-205, MATERIAL=material-205
*ELSET, ELSET=material-208
913, 941, 942, 943, 954, 955, 956, 957, 980, 981, 1496, 1497, 1665, 1689, 1828, 1864, 
1975, 1976, 2159, 2160, 2293, 2333, 2335, 2711, 2723, 2803, 2968, 3311, 3312, 3347, 3348, 3448, 
3767, 3831, 4001, 4101, 4231, 4232, 4260, 4261, 4262, 4386, 4524, 4575, 4576, 4664, 4666, 4667, 
4668, 4669
*SOLID SECTION, ELSET=material-208, MATERIAL=material-208
*ELSET, ELSET=material-209
3902, 3903, 4980
*SOLID SECTION, ELSET=material-209, MATERIAL=material-209
*ELSET, ELSET=material-123
626, 627, 656, 1588, 1790, 1791, 2168, 2523, 2524, 2932, 3028, 3029, 3030, 3110, 3148, 3149, 
3245, 3246, 3557, 4339, 4340, 4349
*SOLID SECTION, ELSET=material-123, MATERIAL=material-123
*ELSET, ELSET=material-122
477, 1814, 2332, 3262, 4481, 4886, 4887, 5297, 5298, 5299
*SOLID SECTION, ELSET=material-122, MATERIAL=material-122
*ELSET, ELSET=material-121
45, 1993, 2012, 2605, 3241, 3812, 3813, 4803, 4804, 4805, 4806
*SOLID SECTION, ELSET=material-121, MATERIAL=material-121
*ELSET, ELSET=material-120
524, 525, 526, 527, 528, 547, 548, 2540, 2541, 3737, 3738, 4195, 4414, 4628, 4748, 4749, 
4750, 4751, 4996
*SOLID SECTION, ELSET=material-120, MATERIAL=material-120
*ELSET, ELSET=material-127
570, 573, 591, 592, 593, 594, 595, 596, 1486, 1487, 1802, 2731, 3089, 3193, 3194, 3558, 
4191, 4279, 4280
*SOLID SECTION, ELSET=material-127, MATERIAL=material-127
*ELSET, ELSET=material-126
520, 522, 541, 542, 597, 598, 599, 600, 601, 628, 630, 631, 657, 658, 659, 686, 
688, 1653, 1661, 1752, 1753, 1905, 1906, 1935, 1936, 1998, 1999, 2051, 2052, 2194, 2195, 2244, 
2287, 2288, 2316, 2489, 2537, 2669, 2670, 2844, 2845, 4023, 4029, 4030, 4031, 4294, 4332, 4333, 
4509, 5394, 5395, 5431, 5432, 5433, 5434, 5454, 5455
*SOLID SECTION, ELSET=material-126, MATERIAL=material-126
*ELSET, ELSET=material-0
723, 724, 753, 754, 755, 782, 1670, 1671, 2990, 3602, 3871, 3935, 4401, 4452, 4813, 4815, 
5420, 5422, 5423
*SOLID SECTION, ELSET=material-0, MATERIAL=material-0
*ELSET, ELSET=material-124
508, 510, 511, 512, 513, 514, 538, 572, 1413, 3279, 3281, 3503, 3736, 3792, 4350, 4701, 
5173, 5174, 5175, 5349, 5350, 5351, 5352
*SOLID SECTION, ELSET=material-124, MATERIAL=material-124
*ELSET, ELSET=material-232
2889, 2929, 2930, 3091, 4267, 5461, 5462, 5463
*SOLID SECTION, ELSET=material-232, MATERIAL=material-232
*ELSET, ELSET=material-129
1512, 2362, 2363, 2831, 2832, 4716
*SOLID SECTION, ELSET=material-129, MATERIAL=material-129
*ELSET, ELSET=material-128
3659, 3660, 4426
*SOLID SECTION, ELSET=material-128, MATERIAL=material-128
*ELSET, ELSET=material-8
668, 669, 670, 3339, 5081, 5082, 5083, 5084
*SOLID SECTION, ELSET=material-8, MATERIAL=material-8
*ELSET, ELSET=material-9
2624, 2668, 4541, 5255, 5334, 5419, 5496, 5498, 5499, 5500
*SOLID SECTION, ELSET=material-9, MATERIAL=material-9
*ELSET, ELSET=material-50
255, 2302, 2575, 2579, 3494, 5188
*SOLID SECTION, ELSET=material-50, MATERIAL=material-50
*ELSET, ELSET=material-51
43, 44, 1459, 2176, 2837, 3802, 3803, 3852, 4843, 4844, 4845, 5014, 5015, 5192, 5193, 5194
*SOLID SECTION, ELSET=material-51, MATERIAL=material-51
*ELSET, ELSET=material-52
2002, 3851, 3854
*SOLID SECTION, ELSET=material-52, MATERIAL=material-52
*ELSET, ELSET=material-53
355, 2766, 2767, 2817, 2818, 2819, 2950, 3985, 3987, 3988, 4686, 4890, 5219, 5220, 5221, 5222
*SOLID SECTION, ELSET=material-53, MATERIAL=material-53
*ELSET, ELSET=material-54
10, 11, 31, 1398, 1399, 1673, 1674, 2461, 2462, 3782, 4051, 4278, 4766, 4923, 4924, 5050, 
5051, 5052, 5377, 5378
*SOLID SECTION, ELSET=material-54, MATERIAL=material-54
*ELSET, ELSET=material-55
81, 116, 118, 119, 120, 1981, 2017, 2018, 2076, 2252, 2420, 2421, 2422, 2613, 2614, 2703, 
2704, 2705, 2706, 2707, 2810, 3288, 3763, 4351, 4352, 4353, 5040, 5041, 5042
*SOLID SECTION, ELSET=material-55, MATERIAL=material-55
*ELSET, ELSET=material-56
47, 48, 49, 110, 1423, 1424, 1700, 1701, 1777, 1788, 1901, 2039, 2040, 2280, 2383, 2384, 
2530, 2532, 3034, 3035, 3036, 3052, 3053, 3067, 3068, 4282, 4283, 4941, 5077, 5078, 5079, 5080
*SOLID SECTION, ELSET=material-56, MATERIAL=material-56
*ELSET, ELSET=material-57
2467, 2468, 4065, 4066, 4504, 4526, 5086
*SOLID SECTION, ELSET=material-57, MATERIAL=material-57
*ELSET, ELSET=material-58
404, 406, 407, 408, 443, 444, 465, 466, 467, 468, 469, 470, 471, 472, 473, 490, 
491, 492, 493, 494, 495, 496, 497, 532, 533, 534, 535, 554, 555, 557, 558, 560, 
585, 586, 587, 612, 613, 614, 615, 649, 650, 651, 652, 675, 679, 680, 1410, 1443, 
1444, 1822, 1823, 1869, 1870, 1927, 1928, 1957, 1972, 1973, 2044, 2073, 2079, 2080, 2087, 2088, 
2113, 2114, 2131, 2132, 2163, 2164, 2167, 2262, 2264, 2612, 2856, 2943, 2944, 3000, 3137, 3138, 
3139, 3140, 3349, 3350, 3351, 3353, 3447, 3472, 3473, 3476, 3549, 3612, 3613, 3614, 4041, 4042, 
4043, 4044, 4058, 4185, 4186, 4323, 4324, 4325, 4326, 4442, 4443, 4444, 4532, 4544, 4546, 4588, 
4846, 4847, 4848, 5123, 5124, 5125, 5162, 5163, 5164, 5231
*SOLID SECTION, ELSET=material-58, MATERIAL=material-58
*ELSET, ELSET=material-59
575, 576, 577, 609, 610, 643, 645, 646, 1531, 1532, 1626, 1874, 1875, 2024, 2171, 2172, 
2326, 2780, 2828, 2829, 2939, 3484, 3486, 4447, 4449, 5211
*SOLID SECTION, ELSET=material-59, MATERIAL=material-59
*Material, name=material-118
*Elastic
210000.0, 0.3
*Plastic
84.62298954718662, 0
*Material, name=material-119
*Elastic
210000.0, 0.3
*Plastic
79.53633240919133, 0
*Material, name=material-116
*Elastic
210000.0, 0.3
*Plastic
76.36236205078642, 0
*Material, name=material-117
*Elastic
210000.0, 0.3
*Plastic
75.26212819782889, 0
*Material, name=material-114
*Elastic
210000.0, 0.3
*Plastic
73.15698645676406, 0
*Material, name=material-115
*Elastic
210000.0, 0.3
*Plastic
79.3405960660945, 0
*Material, name=material-112
*Elastic
210000.0, 0.3
*Plastic
82.00216444732654, 0
*Material, name=material-113
*Elastic
210000.0, 0.3
*Plastic
80.09414899273281, 0
*Material, name=material-110
*Elastic
210000.0, 0.3
*Plastic
83.49047722610526, 0
*Material, name=material-111
*Elastic
210000.0, 0.3
*Plastic
79.44150416787453, 0
*Material, name=material-107
*Elastic
210000.0, 0.3
*Plastic
82.31651189779583, 0
*Material, name=material-65
*Elastic
210000.0, 0.3
*Plastic
81.28869665628926, 0
*Material, name=material-64
*Elastic
210000.0, 0.3
*Plastic
81.74792043329364, 0
*Material, name=material-67
*Elastic
210000.0, 0.3
*Plastic
83.1519990827174, 0
*Material, name=material-66
*Elastic
210000.0, 0.3
*Plastic
67.48518695396737, 0
*Material, name=material-61
*Elastic
210000.0, 0.3
*Plastic
97.3677800984589, 0
*Material, name=material-60
*Elastic
210000.0, 0.3
*Plastic
78.54558579685593, 0
*Material, name=material-63
*Elastic
210000.0, 0.3
*Plastic
91.6957735999956, 0
*Material, name=material-62
*Elastic
210000.0, 0.3
*Plastic
73.47336536980193, 0
*Material, name=material-69
*Elastic
210000.0, 0.3
*Plastic
81.48192560519732, 0
*Material, name=material-68
*Elastic
210000.0, 0.3
*Plastic
78.5131118307908, 0
*Material, name=material-109
*Elastic
210000.0, 0.3
*Plastic
83.4832476713994, 0
*Material, name=material-108
*Elastic
210000.0, 0.3
*Plastic
81.45180854175996, 0
*Material, name=material-85
*Elastic
210000.0, 0.3
*Plastic
86.87595376363922, 0
*Material, name=material-84
*Elastic
210000.0, 0.3
*Plastic
83.40089083836972, 0
*Material, name=material-83
*Elastic
210000.0, 0.3
*Plastic
81.27981312644332, 0
*Material, name=material-82
*Elastic
210000.0, 0.3
*Plastic
85.65315133340687, 0
*Material, name=material-81
*Elastic
210000.0, 0.3
*Plastic
73.10744776601585, 0
*Material, name=material-80
*Elastic
210000.0, 0.3
*Plastic
88.06725502014983, 0
*Material, name=material-101
*Elastic
210000.0, 0.3
*Plastic
83.50134224714387, 0
*Material, name=material-100
*Elastic
210000.0, 0.3
*Plastic
78.33884303790683, 0
*Material, name=material-103
*Elastic
210000.0, 0.3
*Plastic
91.98984734515824, 0
*Material, name=material-102
*Elastic
210000.0, 0.3
*Plastic
75.7311150738627, 0
*Material, name=material-105
*Elastic
210000.0, 0.3
*Plastic
74.2681722591416, 0
*Material, name=material-104
*Elastic
210000.0, 0.3
*Plastic
82.42733273816897, 0
*Material, name=material-89
*Elastic
210000.0, 0.3
*Plastic
84.16946717247251, 0
*Material, name=material-106
*Elastic
210000.0, 0.3
*Plastic
72.70543492345278, 0
*Material, name=material-88
*Elastic
210000.0, 0.3
*Plastic
89.33277875563184, 0
*Material, name=material-78
*Elastic
210000.0, 0.3
*Plastic
78.31022260422327, 0
*Material, name=material-79
*Elastic
210000.0, 0.3
*Plastic
77.18894739205281, 0
*Material, name=material-4
*Elastic
210000.0, 0.3
*Plastic
86.93262384721953, 0
*Material, name=material-72
*Elastic
210000.0, 0.3
*Plastic
78.7954792821971, 0
*Material, name=material-73
*Elastic
210000.0, 0.3
*Plastic
76.87149903383609, 0
*Material, name=material-70
*Elastic
210000.0, 0.3
*Plastic
80.96962515651916, 0
*Material, name=material-71
*Elastic
210000.0, 0.3
*Plastic
80.26652838269644, 0
*Material, name=material-76
*Elastic
210000.0, 0.3
*Plastic
93.42328998834085, 0
*Material, name=material-77
*Elastic
210000.0, 0.3
*Plastic
98.08806469049591, 0
*Material, name=material-74
*Elastic
210000.0, 0.3
*Plastic
87.45528031309185, 0
*Material, name=material-75
*Elastic
210000.0, 0.3
*Plastic
81.7578140032999, 0
*Material, name=material-196
*Elastic
210000.0, 0.3
*Plastic
78.5942593058851, 0
*Material, name=material-197
*Elastic
210000.0, 0.3
*Plastic
83.24723090148994, 0
*Material, name=material-194
*Elastic
210000.0, 0.3
*Plastic
83.39734240687304, 0
*Material, name=material-195
*Elastic
210000.0, 0.3
*Plastic
79.12265027161708, 0
*Material, name=material-219
*Elastic
210000.0, 0.3
*Plastic
91.35382713907832, 0
*Material, name=material-193
*Elastic
210000.0, 0.3
*Plastic
83.04877707803347, 0
*Material, name=material-190
*Elastic
210000.0, 0.3
*Plastic
89.39837615402523, 0
*Material, name=material-191
*Elastic
210000.0, 0.3
*Plastic
84.23235305336146, 0
*Material, name=material-215
*Elastic
210000.0, 0.3
*Plastic
80.29451488482528, 0
*Material, name=material-214
*Elastic
210000.0, 0.3
*Plastic
80.28750034982174, 0
*Material, name=material-217
*Elastic
210000.0, 0.3
*Plastic
79.38652390353752, 0
*Material, name=material-216
*Elastic
210000.0, 0.3
*Plastic
78.66904995949355, 0
*Material, name=material-211
*Elastic
210000.0, 0.3
*Plastic
85.76056112898684, 0
*Material, name=material-210
*Elastic
210000.0, 0.3
*Plastic
77.5433400903119, 0
*Material, name=material-198
*Elastic
210000.0, 0.3
*Plastic
86.37177248242334, 0
*Material, name=material-199
*Elastic
210000.0, 0.3
*Plastic
80.72901733397448, 0
*Material, name=material-94
*Elastic
210000.0, 0.3
*Plastic
80.66135715050095, 0
*Material, name=material-95
*Elastic
210000.0, 0.3
*Plastic
89.78441032493065, 0
*Material, name=material-96
*Elastic
210000.0, 0.3
*Plastic
83.04877707803347, 0
*Material, name=material-97
*Elastic
210000.0, 0.3
*Plastic
79.78692184254601, 0
*Material, name=material-90
*Elastic
210000.0, 0.3
*Plastic
91.38416261375184, 0
*Material, name=material-91
*Elastic
210000.0, 0.3
*Plastic
83.00616150990186, 0
*Material, name=material-92
*Elastic
210000.0, 0.3
*Plastic
85.56989974259719, 0
*Material, name=material-93
*Elastic
210000.0, 0.3
*Plastic
74.5362858479054, 0
*Material, name=material-98
*Elastic
210000.0, 0.3
*Plastic
90.47966270939665, 0
*Material, name=material-99
*Elastic
210000.0, 0.3
*Plastic
90.95799500914339, 0
*Material, name=material-178
*Elastic
210000.0, 0.3
*Plastic
85.95255002679545, 0
*Material, name=material-179
*Elastic
210000.0, 0.3
*Plastic
86.00615752727292, 0
*Material, name=material-174
*Elastic
210000.0, 0.3
*Plastic
77.42726983071884, 0
*Material, name=material-175
*Elastic
210000.0, 0.3
*Plastic
77.66774996818339, 0
*Material, name=material-176
*Elastic
210000.0, 0.3
*Plastic
81.32441512001634, 0
*Material, name=material-177
*Elastic
210000.0, 0.3
*Plastic
78.60795568578587, 0
*Material, name=material-170
*Elastic
210000.0, 0.3
*Plastic
77.44468922165497, 0
*Material, name=material-171
*Elastic
210000.0, 0.3
*Plastic
84.15283343162878, 0
*Material, name=material-172
*Elastic
210000.0, 0.3
*Plastic
73.56752018336161, 0
*Material, name=material-173
*Elastic
210000.0, 0.3
*Plastic
83.1217956208666, 0
*Material, name=material-181
*Elastic
210000.0, 0.3
*Plastic
81.0550718875094, 0
*Material, name=material-180
*Elastic
210000.0, 0.3
*Plastic
77.1612252354652, 0
*Material, name=material-183
*Elastic
210000.0, 0.3
*Plastic
75.79927551634292, 0
*Material, name=material-182
*Elastic
210000.0, 0.3
*Plastic
79.22875387922359, 0
*Material, name=material-185
*Elastic
210000.0, 0.3
*Plastic
76.03201189330863, 0
*Material, name=material-184
*Elastic
210000.0, 0.3
*Plastic
87.21016051278346, 0
*Material, name=material-187
*Elastic
210000.0, 0.3
*Plastic
82.07338419525392, 0
*Material, name=material-186
*Elastic
210000.0, 0.3
*Plastic
84.05827575162999, 0
*Material, name=material-189
*Elastic
210000.0, 0.3
*Plastic
84.43918456494981, 0
*Material, name=material-188
*Elastic
210000.0, 0.3
*Plastic
71.18792997519577, 0
*Material, name=material-218
*Elastic
210000.0, 0.3
*Plastic
91.23392227995053, 0
*Material, name=material-169
*Elastic
210000.0, 0.3
*Plastic
78.27972609101042, 0
*Material, name=material-168
*Elastic
210000.0, 0.3
*Plastic
76.15267338058828, 0
*Material, name=material-167
*Elastic
210000.0, 0.3
*Plastic
88.57882839640368, 0
*Material, name=material-166
*Elastic
210000.0, 0.3
*Plastic
77.09437596632473, 0
*Material, name=material-165
*Elastic
210000.0, 0.3
*Plastic
78.58061254461533, 0
*Material, name=material-164
*Elastic
210000.0, 0.3
*Plastic
78.15918063016869, 0
*Material, name=material-163
*Elastic
210000.0, 0.3
*Plastic
82.80188738821684, 0
*Material, name=material-162
*Elastic
210000.0, 0.3
*Plastic
80.47204458430957, 0
*Material, name=material-161
*Elastic
210000.0, 0.3
*Plastic
84.85195528514342, 0
*Material, name=material-160
*Elastic
210000.0, 0.3
*Plastic
85.83535208351921, 0
*Material, name=material-6
*Elastic
210000.0, 0.3
*Plastic
82.86475951611436, 0
*Material, name=material-18
*Elastic
210000.0, 0.3
*Plastic
87.72817842474417, 0
*Material, name=material-19
*Elastic
210000.0, 0.3
*Plastic
74.40676689998473, 0
*Material, name=material-7
*Elastic
210000.0, 0.3
*Plastic
87.97195583398207, 0
*Material, name=material-14
*Elastic
210000.0, 0.3
*Plastic
79.3405960660945, 0
*Material, name=material-15
*Elastic
210000.0, 0.3
*Plastic
84.7901799179271, 0
*Material, name=material-16
*Elastic
210000.0, 0.3
*Plastic
71.23383499409736, 0
*Material, name=material-17
*Elastic
210000.0, 0.3
*Plastic
87.47882785907794, 0
*Material, name=material-10
*Elastic
210000.0, 0.3
*Plastic
81.04036134075307, 0
*Material, name=material-11
*Elastic
210000.0, 0.3
*Plastic
81.1746188740871, 0
*Material, name=material-12
*Elastic
210000.0, 0.3
*Plastic
83.20618018082826, 0
*Material, name=material-13
*Elastic
210000.0, 0.3
*Plastic
84.88072562319579, 0
*Material, name=material-5
*Elastic
210000.0, 0.3
*Plastic
83.05866708397976, 0
*Material, name=material-213
*Elastic
210000.0, 0.3
*Plastic
76.77005493114982, 0
*Material, name=material-2
*Elastic
210000.0, 0.3
*Plastic
80.32269340493212, 0
*Material, name=material-212
*Elastic
210000.0, 0.3
*Plastic
76.05291861116436, 0
*Material, name=material-3
*Elastic
210000.0, 0.3
*Plastic
77.69708531999152, 0
*Material, name=material-125
*Elastic
210000.0, 0.3
*Plastic
78.04049555969037, 0
*Material, name=material-236
*Elastic
210000.0, 0.3
*Plastic
87.34669760359932, 0
*Material, name=material-1
*Elastic
210000.0, 0.3
*Plastic
81.24666230176811, 0
*Material, name=material-158
*Elastic
210000.0, 0.3
*Plastic
80.7799955799264, 0
*Material, name=material-159
*Elastic
210000.0, 0.3
*Plastic
79.44434449373102, 0
*Material, name=material-152
*Elastic
210000.0, 0.3
*Plastic
80.96962515651916, 0
*Material, name=material-153
*Elastic
210000.0, 0.3
*Plastic
86.29533615696741, 0
*Material, name=material-150
*Elastic
210000.0, 0.3
*Plastic
77.26002106610711, 0
*Material, name=material-151
*Elastic
210000.0, 0.3
*Plastic
87.12098545087957, 0
*Material, name=material-156
*Elastic
210000.0, 0.3
*Plastic
81.43337832811017, 0
*Material, name=material-157
*Elastic
210000.0, 0.3
*Plastic
77.27583721817923, 0
*Material, name=material-154
*Elastic
210000.0, 0.3
*Plastic
92.86535307183905, 0
*Material, name=material-155
*Elastic
210000.0, 0.3
*Plastic
77.5433400903119, 0
*Material, name=material-21
*Elastic
210000.0, 0.3
*Plastic
72.71892844849764, 0
*Material, name=material-20
*Elastic
210000.0, 0.3
*Plastic
78.65281555646165, 0
*Material, name=material-23
*Elastic
210000.0, 0.3
*Plastic
73.45269313446833, 0
*Material, name=material-22
*Elastic
210000.0, 0.3
*Plastic
77.32371840435252, 0
*Material, name=material-25
*Elastic
210000.0, 0.3
*Plastic
81.59019996496716, 0
*Material, name=material-24
*Elastic
210000.0, 0.3
*Plastic
84.7901799179271, 0
*Material, name=material-27
*Elastic
210000.0, 0.3
*Plastic
79.94485439129818, 0
*Material, name=material-26
*Elastic
210000.0, 0.3
*Plastic
76.25027864867513, 0
*Material, name=material-29
*Elastic
210000.0, 0.3
*Plastic
86.70941679623277, 0
*Material, name=material-28
*Elastic
210000.0, 0.3
*Plastic
80.03607538103907, 0
*Material, name=material-230
*Elastic
210000.0, 0.3
*Plastic
84.7901799179271, 0
*Material, name=material-246
*Elastic
210000.0, 0.3
*Plastic
77.87924435921295, 0
*Material, name=material-244
*Elastic
210000.0, 0.3
*Plastic
83.54505254371725, 0
*Material, name=material-245
*Elastic
210000.0, 0.3
*Plastic
94.0316566872279, 0
*Material, name=material-242
*Elastic
210000.0, 0.3
*Plastic
78.94120023532244, 0
*Material, name=material-243
*Elastic
210000.0, 0.3
*Plastic
97.73835010041302, 0
*Material, name=material-240
*Elastic
210000.0, 0.3
*Plastic
77.88394164481855, 0
*Material, name=material-241
*Elastic
210000.0, 0.3
*Plastic
84.6642645589374, 0
*Material, name=material-224
*Elastic
210000.0, 0.3
*Plastic
83.12849065779488, 0
*Material, name=material-225
*Elastic
210000.0, 0.3
*Plastic
81.27981312644332, 0
*Material, name=material-226
*Elastic
210000.0, 0.3
*Plastic
74.67954966208826, 0
*Material, name=material-227
*Elastic
210000.0, 0.3
*Plastic
81.57354888958471, 0
*Material, name=material-220
*Elastic
210000.0, 0.3
*Plastic
86.8548541597204, 0
*Material, name=material-221
*Elastic
210000.0, 0.3
*Plastic
79.22875387922359, 0
*Material, name=material-222
*Elastic
210000.0, 0.3
*Plastic
81.31322126809451, 0
*Material, name=material-223
*Elastic
210000.0, 0.3
*Plastic
83.99356463365557, 0
*Material, name=material-228
*Elastic
210000.0, 0.3
*Plastic
78.1168520381204, 0
*Material, name=material-229
*Elastic
210000.0, 0.3
*Plastic
81.17245452495476, 0
*Material, name=material-145
*Elastic
210000.0, 0.3
*Plastic
77.38205067059658, 0
*Material, name=material-144
*Elastic
210000.0, 0.3
*Plastic
87.60613022567361, 0
*Material, name=material-147
*Elastic
210000.0, 0.3
*Plastic
80.90614243508841, 0
*Material, name=material-146
*Elastic
210000.0, 0.3
*Plastic
88.2087983742773, 0
*Material, name=material-141
*Elastic
210000.0, 0.3
*Plastic
82.07338419525392, 0
*Material, name=material-140
*Elastic
210000.0, 0.3
*Plastic
85.89948554486887, 0
*Material, name=material-143
*Elastic
210000.0, 0.3
*Plastic
82.98012933598025, 0
*Material, name=material-142
*Elastic
210000.0, 0.3
*Plastic
93.32018365241112, 0
*Material, name=material-149
*Elastic
210000.0, 0.3
*Plastic
77.28615614492857, 0
*Material, name=material-148
*Elastic
210000.0, 0.3
*Plastic
78.22463195781258, 0
*Material, name=material-36
*Elastic
210000.0, 0.3
*Plastic
77.14515534606679, 0
*Material, name=material-37
*Elastic
210000.0, 0.3
*Plastic
79.76068056394084, 0
*Material, name=material-34
*Elastic
210000.0, 0.3
*Plastic
82.42733273816897, 0
*Material, name=material-35
*Elastic
210000.0, 0.3
*Plastic
80.6231800222173, 0
*Material, name=material-32
*Elastic
210000.0, 0.3
*Plastic
84.56848387145664, 0
*Material, name=material-33
*Elastic
210000.0, 0.3
*Plastic
81.39903152166332, 0
*Material, name=material-30
*Elastic
210000.0, 0.3
*Plastic
69.33661387849844, 0
*Material, name=material-31
*Elastic
210000.0, 0.3
*Plastic
86.2199850807613, 0
*Material, name=material-38
*Elastic
210000.0, 0.3
*Plastic
81.81764686955177, 0
*Material, name=material-39
*Elastic
210000.0, 0.3
*Plastic
89.37642951958064, 0
*Material, name=material-237
*Elastic
210000.0, 0.3
*Plastic
77.75376380918621, 0
*Material, name=material-87
*Elastic
210000.0, 0.3
*Plastic
78.3784250630703, 0
*Material, name=material-235
*Elastic
210000.0, 0.3
*Plastic
83.27825612185141, 0
*Material, name=material-234
*Elastic
210000.0, 0.3
*Plastic
78.58856714389805, 0
*Material, name=material-233
*Elastic
210000.0, 0.3
*Plastic
84.62755878800976, 0
*Material, name=material-192
*Elastic
210000.0, 0.3
*Plastic
96.9459379161193, 0
*Material, name=material-231
*Elastic
210000.0, 0.3
*Plastic
78.66788804463341, 0
*Material, name=material-86
*Elastic
210000.0, 0.3
*Plastic
78.15209193638465, 0
*Material, name=material-239
*Elastic
210000.0, 0.3
*Plastic
77.7320664660901, 0
*Material, name=material-238
*Elastic
210000.0, 0.3
*Plastic
84.7901799179271, 0
*Material, name=material-130
*Elastic
210000.0, 0.3
*Plastic
79.77609576914432, 0
*Material, name=material-131
*Elastic
210000.0, 0.3
*Plastic
83.05866708397976, 0
*Material, name=material-132
*Elastic
210000.0, 0.3
*Plastic
79.71478837499959, 0
*Material, name=material-133
*Elastic
210000.0, 0.3
*Plastic
83.05866708397976, 0
*Material, name=material-134
*Elastic
210000.0, 0.3
*Plastic
81.81764686955177, 0
*Material, name=material-135
*Elastic
210000.0, 0.3
*Plastic
86.93262384721953, 0
*Material, name=material-136
*Elastic
210000.0, 0.3
*Plastic
86.74369125202708, 0
*Material, name=material-137
*Elastic
210000.0, 0.3
*Plastic
96.77698092833658, 0
*Material, name=material-138
*Elastic
210000.0, 0.3
*Plastic
76.17895470111975, 0
*Material, name=material-139
*Elastic
210000.0, 0.3
*Plastic
78.69587295798567, 0
*Material, name=material-43
*Elastic
210000.0, 0.3
*Plastic
86.35256012061221, 0
*Material, name=material-42
*Elastic
210000.0, 0.3
*Plastic
79.09007962038885, 0
*Material, name=material-41
*Elastic
210000.0, 0.3
*Plastic
78.72760513879203, 0
*Material, name=material-40
*Elastic
210000.0, 0.3
*Plastic
98.08806469049591, 0
*Material, name=material-47
*Elastic
210000.0, 0.3
*Plastic
88.99474253146835, 0
*Material, name=material-46
*Elastic
210000.0, 0.3
*Plastic
78.7099433624667, 0
*Material, name=material-45
*Elastic
210000.0, 0.3
*Plastic
78.61596828427344, 0
*Material, name=material-44
*Elastic
210000.0, 0.3
*Plastic
86.17034036226127, 0
*Material, name=material-49
*Elastic
210000.0, 0.3
*Plastic
81.47263654643574, 0
*Material, name=material-48
*Elastic
210000.0, 0.3
*Plastic
81.64053742779902, 0
*Material, name=material-202
*Elastic
210000.0, 0.3
*Plastic
79.74992515407223, 0
*Material, name=material-203
*Elastic
210000.0, 0.3
*Plastic
84.56848387145664, 0
*Material, name=material-200
*Elastic
210000.0, 0.3
*Plastic
77.8933545147725, 0
*Material, name=material-201
*Elastic
210000.0, 0.3
*Plastic
78.24947861454828, 0
*Material, name=material-206
*Elastic
210000.0, 0.3
*Plastic
82.17286433444585, 0
*Material, name=material-207
*Elastic
210000.0, 0.3
*Plastic
79.30752902539311, 0
*Material, name=material-204
*Elastic
210000.0, 0.3
*Plastic
76.58035694012653, 0
*Material, name=material-205
*Elastic
210000.0, 0.3
*Plastic
100.70761450200129, 0
*Material, name=material-208
*Elastic
210000.0, 0.3
*Plastic
73.95599974752278, 0
*Material, name=material-209
*Elastic
210000.0, 0.3
*Plastic
93.59161435215057, 0
*Material, name=material-123
*Elastic
210000.0, 0.3
*Plastic
81.60213259216479, 0
*Material, name=material-122
*Elastic
210000.0, 0.3
*Plastic
86.44932252000238, 0
*Material, name=material-121
*Elastic
210000.0, 0.3
*Plastic
87.12098545087957, 0
*Material, name=material-120
*Elastic
210000.0, 0.3
*Plastic
80.43192847786348, 0
*Material, name=material-127
*Elastic
210000.0, 0.3
*Plastic
82.71222044766384, 0
*Material, name=material-126
*Elastic
210000.0, 0.3
*Plastic
75.78806847819055, 0
*Material, name=material-0
*Elastic
210000.0, 0.3
*Plastic
81.32441512001634, 0
*Material, name=material-124
*Elastic
210000.0, 0.3
*Plastic
81.82015761800879, 0
*Material, name=material-232
*Elastic
210000.0, 0.3
*Plastic
86.29533615696741, 0
*Material, name=material-129
*Elastic
210000.0, 0.3
*Plastic
92.22822878733385, 0
*Material, name=material-128
*Elastic
210000.0, 0.3
*Plastic
98.92726195016627, 0
*Material, name=material-8
*Elastic
210000.0, 0.3
*Plastic
90.845363104651, 0
*Material, name=material-9
*Elastic
210000.0, 0.3
*Plastic
81.32665738138924, 0
*Material, name=material-50
*Elastic
210000.0, 0.3
*Plastic
83.30252913996227, 0
*Material, name=material-51
*Elastic
210000.0, 0.3
*Plastic
85.80645909131292, 0
*Material, name=material-52
*Elastic
210000.0, 0.3
*Plastic
92.00658605798674, 0
*Material, name=material-53
*Elastic
210000.0, 0.3
*Plastic
81.77021233282588, 0
*Material, name=material-54
*Elastic
210000.0, 0.3
*Plastic
78.76556058315984, 0
*Material, name=material-55
*Elastic
210000.0, 0.3
*Plastic
78.73351072140021, 0
*Material, name=material-56
*Elastic
210000.0, 0.3
*Plastic
78.38596114306814, 0
*Material, name=material-57
*Elastic
210000.0, 0.3
*Plastic
87.293196696169, 0
*Material, name=material-58
*Elastic
210000.0, 0.3
*Plastic
72.7829628744423, 0
*Material, name=material-59
*Elastic
210000.0, 0.3
*Plastic
79.31852034959373, 0
